*Heading
** Job name: NDB_R40 Model name: NDB_R40_coarse
** Generated by: Abaqus/CAE Learning Edition 2023
*Preprint, echo=NO, model=NO, history=NO, contact=NO
**
** PARTS
**
*Part, name=DogBone_Form1
*End Part
**  
**
** ASSEMBLY
**
*Assembly, name=Assembly
**  
*Instance, name=model, part=DogBone_Form1
          0.,           0., 0.500000000000002
          0.,           0., 0.500000000000002,           0.,           1., 0.500000000000002,         180.
*Node
      1,  -5.61726284,           7.,          0.5
      2,  -5.61726284,           7.,           0.
      3,  -5.45255995,           6.,           0.
      4,  -5.45255995,           6.,          0.5
      5,           0.,           7.,           0.
      6,           0.,           6.,           0.
      7,           0.,           6.,          0.5
      8,           0.,           7.,          0.5
      9,           0.,           4.,          0.5
     10,           0.,           4.,           0.
     11,   -5.2005024,           4.,          0.5
     12,   -5.2005024,           4.,           0.
     13,  -5.05003119,           2.,          0.5
     14,           0.,           2.,          0.5
     15,           0.,           2.,           0.
     16,  -5.05003119,           2.,           0.
     17,          -5.,           0.,          0.5
     18,           0.,           0.,          0.5
     19,           0.,           0.,           0.
     20,          -5.,           0.,           0.
** ... 560 like lines cut
*Element, type=C3D8R
 1,  38, 168,  27,   1, 195, 425, 204,  56
 2, 168, 169,  28,  27, 425, 426, 205, 204
 3, 169, 170,  29,  28, 426, 427, 206, 205
 4, 170,  30,   2,  29, 427, 177,  39, 206
 5,  37, 171, 168,  38, 196, 428, 425, 195
 6, 171, 172, 169, 168, 428, 429, 426, 425
 7, 172, 173, 170, 169, 429, 430, 427, 426
 8, 173,  31,  30, 170, 430, 178, 177, 427
 9,  36, 174, 171,  37, 197, 431, 428, 196
10, 174, 175, 172, 171, 431, 432, 429, 428
11, 175, 176, 173, 172, 432, 433, 430, 429
12, 176,  32,  31, 173, 433, 179, 178, 430
13,   4,  35, 174,  36,  51, 186, 431, 197
14,  35,  34, 175, 174, 186, 187, 432, 431
15,  34,  33, 176, 175, 187, 188, 433, 432
16,  33,   3,  32, 176, 188,  47, 179, 433
17, 195, 425, 204,  56, 198, 434, 207,  55
18, 425, 426, 205, 204, 434, 435, 208, 207
19, 426, 427, 206, 205, 435, 436, 209, 208
20, 427, 177,  39, 206, 436, 180,  40, 209
** ... 336 like lines cut
*Nset, nset=Sample, generate
   1,  580,    1
*Elset, elset=Sample, generate
   1,  356,    1
** Section: Section-1
*Solid Section, elset=Sample, material=CP1000
,
*End Instance
**  
*Nset, nset=Disp, instance=model
  21,  22,  25,  26, 138, 139, 140, 147, 148, 149, 153, 154, 155, 162, 163, 164
 407, 408, 409, 410, 411, 412, 413, 414, 415
*Elset, elset=Disp, instance=model
 264, 265, 268, 272, 289, 290, 293, 297, 314, 315, 318, 322, 339, 340, 343, 347
*Nset, nset=Force, instance=model
  21,  22,  25,  26, 138, 139, 140, 147, 148, 149, 153, 154, 155, 162, 163, 164
 407, 408, 409, 410, 411, 412, 413, 414, 415
*Elset, elset=Force, instance=model
 264, 265, 268, 272, 289, 290, 293, 297, 314, 315, 318, 322, 339, 340, 343, 347
*Nset, nset=x_symm, instance=model
   5,   6,   7,   8,   9,  10,  14,  15,  18,  19,  21,  26,  42,  43,  44,  48
  49,  50,  57,  58,  59,  60,  61,  62,  63,  64,  65,  66,  67,  68,  69,  70
  71,  93,  94,  95,  96,  97,  98, 102, 103, 104, 117, 118, 119, 123, 124, 125
 126, 127, 128, 135, 136, 137, 153, 154, 155, 165, 166, 167, 213, 214, 215, 216
 217, 218, 219, 220, 221, 222, 223, 224, 225, 226, 227, 228, 229, 230, 285, 286
 287, 288, 289, 290, 291, 292, 293, 348, 349, 350, 351, 352, 353, 354, 355, 356
 416, 417, 418, 419, 420, 421, 422, 423, 424
*Elset, elset=x_symm, instance=model
  49,  50,  51,  52,  53,  54,  55,  56,  57,  58,  59,  60,  61,  62,  63,  64
  65,  66,  67,  68,  69,  70,  71,  72,  73,  74,  75,  76,  77,  78,  79,  80
 129, 133, 137, 141, 145, 149, 153, 157, 161, 165, 169, 173, 177, 181, 185, 189
 193, 197, 201, 205, 209, 213, 217, 221, 225, 229, 233, 237, 241, 245, 249, 253
 260, 263, 264, 277, 285, 288, 289, 302, 310, 313, 314, 327, 335, 338, 339, 352
*Nset, nset=y_symm, instance=model
  17,  18,  19,  20, 114, 115, 116, 120, 121, 122, 123, 124, 125, 129, 130, 131
 339, 340, 341, 342, 343, 344, 345, 346, 347
*Elset, elset=y_symm, instance=model
 205, 206, 207, 208, 221, 222, 223, 224, 237, 238, 239, 240, 253, 254, 255, 256
*Nset, nset=z_symm, instance=model
   1,   4,   7,   8,   9,  11,  13,  14,  17,  18,  21,  22,  23,  36,  37,  38
  51,  52,  53,  54,  55,  56,  57,  58,  59,  69,  70,  71,  72,  73,  74,  75
  76,  77,  87,  88,  89,  90,  91,  92,  93,  94,  95, 111, 112, 113, 114, 115
 116, 117, 118, 119, 135, 136, 137, 138, 139, 140, 141, 142, 143, 144, 145, 146
 195, 196, 197, 198, 199, 200, 201, 202, 203, 231, 232, 233, 234, 235, 236, 237
 238, 239, 267, 268, 269, 270, 271, 272, 273, 274, 275, 312, 313, 314, 315, 316
 317, 318, 319, 320, 357, 358, 359, 360, 361, 362, 363, 364, 365, 366, 367, 368
 369, 370, 371, 372
*Elset, elset=z_symm, instance=model
   1,   5,   9,  13,  17,  21,  25,  29,  33,  37,  41,  45,  49,  53,  57,  61
  65,  69,  73,  77,  81,  85,  89,  93,  97, 101, 105, 109, 113, 117, 121, 125
 129, 130, 131, 132, 133, 134, 135, 136, 137, 138, 139, 140, 141, 142, 143, 144
 193, 194, 195, 196, 197, 198, 199, 200, 201, 202, 203, 204, 205, 206, 207, 208
 257, 258, 259, 260, 261, 262, 263, 264, 265, 266, 267, 268, 269, 270, 271, 272
 273, 274, 275, 276, 277, 278, 279, 280, 281
*End Assembly
*Amplitude, name=Amp-1
             0.,              0.,            0.01,              1.
** 
** MATERIALS
** 
*Material, name=CP1000
*Density
 7.85,
*Elastic
213000., 0.3
** 
** BOUNDARY CONDITIONS
** 
** Name: x-Symmetrie Type: Symmetry/Antisymmetry/Encastre
*Boundary
x_symm, XSYMM
** Name: y-Symmetrie Type: Symmetry/Antisymmetry/Encastre
*Boundary
y_symm, YSYMM
** Name: z-Symmetrie Type: Symmetry/Antisymmetry/Encastre
*Boundary
z_symm, ZSYMM
** ----------------------------------------------------------------
** 
** STEP: move
** 
*Step, name=move, nlgeom=YES, inc=10000
*Static
0.001, 1., 1e-05, 0.01
** 
** BOUNDARY CONDITIONS
** 
** Name: Zug Type: Displacement/Rotation
*Boundary, amplitude=Amp-1
Disp, 2, 2, 1.
** 
** OUTPUT REQUESTS
** 
*Restart, write, number interval=1, time marks=NO
** 
** FIELD OUTPUT: F-Output-1
** 
*Output, field, number interval=100, time marks=NO
*Node Output
RF, U
*Element Output, directions=YES
PEEQ, S
** 
** HISTORY OUTPUT: H-Output-1
** 
*Output, history, variable=PRESELECT, number interval=200, time marks=NO
*End Step
