*SYSTEM
*NODE, SYSTEM=R
       1,         10.,          0.,          0.
       2,  5.72201e-09,          0.,          0.
       3,         9.5,          0.,          0.
       4,          9.,          0.,          0.
       5,         8.5,          0.,          0.
       6,          8.,          0.,          0.
       7,         7.5,          0.,          0.
       8,          7.,          0.,          0.
       9,         6.5,          0.,          0.
      10,          6.,          0.,          0.
      11,         5.5,          0.,          0.
      12,          5.,          0.,          0.
      13,         4.5,          0.,          0.
      14,          4.,          0.,          0.
      15,         3.5,          0.,          0.
      16,          3.,          0.,          0.
      17,         2.5,          0.,          0.
      18,          2.,          0.,          0.
      19,         1.5,          0.,          0.
      20,    0.999999,          0.,          0.
** ... 2645 like lines cut
*MATERIAL, NAME=MAT_MID_1
*ELASTIC
210000., 0.3
*SHELL SECTION, ELSET=PSHELL_1, MATERIAL=MAT_MID_1
1.,
*ELEMENT, TYPE=S3R, ELSET=PSHELL_1
1, 3, 120, 1
2, 4, 121, 3
3, 5, 122, 4
4, 6, 123, 5
5, 7, 124, 6
6, 8, 125, 7
7, 9, 126, 8
8, 10, 127, 9
9, 11, 128, 10
10, 12, 129, 11
11, 13, 130, 12
12, 14, 131, 13
13, 15, 132, 14
14, 16, 133, 15
15, 17, 134, 16
16, 18, 135, 17
17, 19, 136, 18
18, 20, 137, 19
19, 21, 138, 20
20, 21, 2, 23
** ... 5116 like lines cut
*ELSET, ELSET=ALL_SHELL_ISO
PSHELL_1,
*ELSET, ELSET=ALL_MASSIVE_ELEMENTS
ALL_SHELL_ISO,
*STEP, PERTURBATION, name=Step-1
*STATIC
*BOUNDARY
       1, 1,6, 0.
      62, 1,6, 0.
      82, 1,6, 0.
      83, 1,6, 0.
      84, 1,6, 0.
      85, 1,6, 0.
     117, 1,6, 0.
     118, 1,6, 0.
     119, 1,6, 0.
     120, 1,6, 0.
*CLOAD
    1807, 3, -0.6
    1808, 3, -0.6
    1809, 3, -0.6
    1810, 3, -0.6
    1811, 3, -0.6
    1812, 3, -0.6
    1813, 3, -0.6
    1814, 3, -0.6
    1815, 3, -0.6
    1816, 3, -0.6
    1817, 3, -0.6
*END STEP
*STEP, PERTURBATION, name=Step-2
*STATIC
*BOUNDARY
       1, 1,6, 0.
      62, 1,6, 0.
      82, 1,6, 0.
      83, 1,6, 0.
      84, 1,6, 0.
      85, 1,6, 0.
     117, 1,6, 0.
     118, 1,6, 0.
     119, 1,6, 0.
     120, 1,6, 0.
*CLOAD
    1807, 2, -0.2
    1808, 2, -0.2
    1809, 2, -0.2
    1810, 2, -0.2
    1811, 2, -0.2
    1812, 2, -0.2
    1813, 2, -0.2
    1814, 2, -0.2
    1815, 2, -0.2
    1816, 2, -0.2
    1817, 2, -0.2
*END STEP
