1

   Abaqus 2023.HF4                                  Date 21-May-2024   Time 15:03:31
   For use by AALTO UNIVERSITY under license from Dassault Systemes or its subsidiary.

                                                                                 
                                                                                 
 STEP    1     INCREMENT     1     STEP TIME    0.00    


                        S T E P       1     C O U P L E D - T E M P E R A T U R E - D I S P L A C E M E N T   A N A L Y S I S


                                                                                          

          FIXED TIME INCREMENTS
          TIME INCREMENT IS                                    1.000E+03
          TIME PERIOD IS                                       1.000E+05

          CREEP AND SWELLING EFFECTS ARE OMITTED IN THIS STEP
          THE RATE DEPENDENCY WILL BE CONSIDERED IN THIS STEP

          CREEP AND SWELLING EFFECTS WILL BE IGNORED.

 CONVERGENCE TOLERANCE PARAMETERS FOR FORCE    
     CRITERION FOR RESIDUAL FORCE     FOR A NONLINEAR PROBLEM          5.000E-03
     CRITERION FOR DISP.    CORRECTION IN A NONLINEAR PROBLEM          1.000E-02
     INITIAL VALUE OF TIME AVERAGE FORCE                               1.000E-02
     AVERAGE FORCE     IS TIME AVERAGE FORCE    
     ALTERNATE CRIT. FOR RESIDUAL FORCE     FOR A NONLINEAR PROBLEM    2.000E-02
     CRITERION FOR ZERO FORCE     RELATIVE TO TIME AVRG. FORCE         1.000E-05
     CRITERION FOR RESIDUAL FORCE     WHEN THERE IS ZERO FLUX          1.000E-05
     CRITERION FOR DISP.    CORRECTION WHEN THERE IS ZERO FLUX         1.000E-03
     CRITERION FOR RESIDUAL FORCE     FOR A LINEAR INCREMENT           1.000E-08
     FIELD CONVERSION RATIO                                             1.00    
     CRITERION FOR ZERO FORCE     REL. TO TIME AVRG. MAX. FORCE        1.000E-05
     CRITERION FOR ZERO DISP.    RELATIVE TO CHARACTERISTIC LENGTH     1.000E-08

 CONVERGENCE TOLERANCE PARAMETERS FOR HEAT FLUX
     CRITERION FOR RESIDUAL HEAT FLUX FOR A NONLINEAR PROBLEM          5.000E-03
     CRITERION FOR TEMP.    CORRECTION IN A NONLINEAR PROBLEM          1.000E-02
     INITIAL VALUE OF TIME AVERAGE HEAT FLUX                           1.000E-02
     AVERAGE HEAT FLUX IS TIME AVERAGE HEAT FLUX
     ALTERNATE CRIT. FOR RESIDUAL HEAT FLUX FOR A NONLINEAR PROBLEM    2.000E-02
     CRITERION FOR ZERO HEAT FLUX RELATIVE TO TIME AVRG. HEAT FLUX     1.000E-05
     CRITERION FOR RESIDUAL HEAT FLUX WHEN THERE IS ZERO FLUX          1.000E-05
     CRITERION FOR TEMP.    CORRECTION WHEN THERE IS ZERO FLUX         1.000E-03
     CRITERION FOR RESIDUAL HEAT FLUX FOR A LINEAR INCREMENT           1.000E-08
     FIELD CONVERSION RATIO                                             1.00    
     CRITERION FOR ZERO HEAT FLUX REL. TO TIME AVRG. MAX. HEAT FLUX    1.000E-05

     VOLUMETRIC STRAIN COMPATIBILITY TOLERANCE FOR HYBRID SOLIDS       1.000E-05
     AXIAL STRAIN COMPATIBILITY TOLERANCE FOR HYBRID BEAMS             1.000E-05
     TRANS. SHEAR STRAIN COMPATIBILITY TOLERANCE FOR HYBRID BEAMS      1.000E-05
     SOFT CONTACT CONSTRAINT COMPATIBILITY TOLERANCE FOR P>P0          5.000E-03
     SOFT CONTACT CONSTRAINT COMPATIBILITY TOLERANCE FOR P=0.0         0.100    
     CONTACT FORCE ERROR TOLERANCE FOR CONVERT SDI=YES                 1.00    
     DISPLACEMENT COMPATIBILITY TOLERANCE FOR DCOUP ELEMENTS           1.000E-05
     ROTATION COMPATIBILITY TOLERANCE FOR DCOUP ELEMENTS               1.000E-05

 EQUILIBRIUM WILL BE CHECKED FOR SEVERE DISCONTINUITY ITERATIONS

 ITERATION CONTROL PARAMETERS:
     FIRST EQUILIBRIUM ITERATION FOR CONSECUTIVE DIVERGENCE CHECK              4
     EQUILIBRIUM ITERATION AFTER WHICH ALTERNATE RESIDUAL IS USED              9
     MAXIMUM EQUILIBRIUM ITERATIONS ALLOWED                                   16
     MAXIMUM ITERATIONS FOR SEVERE DISCONTINUITIES                            12
     GLOBAL STABILIZATION CONTROL IS NOT USED

          PRINT OF INCREMENT NUMBER, TIME, ETC., EVERY    1  INCREMENTS

     THE MAXIMUM NUMBER OF INCREMENTS IN THIS STEP IS                    1000

          LARGE DISPLACEMENT THEORY WILL BE USED

          UNSYMMETRIC MATRIX STORAGE AND SOLUTION WILL BE USED

     LINEAR EXTRAPOLATION WILL BE USED

     CHARACTERISTIC ELEMENT LENGTH     8.389E-04

     DETAILS REGARDING ACTUAL SOLUTION WAVEFRONT REQUESTED

     DETAILED OUTPUT OF DIAGNOSTICS TO DATABASE REQUESTED

     PRINT OF INCREMENT NUMBER, TIME, ETC., TO THE MESSAGE FILE EVERY     1  INCREMENTS

     ELEMENT OPERATIONS WILL BE CARRIED OUT IN PARALLEL USING   4 THREADS ON 1 DOMAIN

     PARALLEL CONTACT TRACKING ENABLED


     COLLECTING MODEL CONSTRAINT INFORMATION FOR OVERCONSTRAINT CHECKS

     COLLECTING STEP CONSTRAINT INFORMATION FOR OVERCONSTRAINT CHECKS


  INCREMENT     1 STARTS. ATTEMPT NUMBER  1, TIME INCREMENT  1.000E+03
 
     INITIAL ELEMENT LOAD BALANCE
            DOMAIN    1     THREAD    NUMBER OF ELEMENTS
                              1            936
                              2            1224
                              3            1192
                              4            1145
 
	UNSYMMETRIC NEW DIRECT SPARSE SOLVER RUNNING ON
 	1 HOST x 1 MPI RANK PER HOST x 4 THREADS PER RANK
        NUMBER OF EQUATIONS:  45663
        NUMBER OF RHS:        1
        NUMBER OF FLOPS:      7.282e+09
        SOLVER ELAPSED TIME:  84ms

               CONVERGENCE CHECKS FOR EQUILIBRIUM ITERATION     1


 AVERAGE FORCE                      1.686E+03   TIME AVG. FORCE       1.686E+03
 LARGEST SCALED RESIDUAL FORCE       6.88       AT NODE      11632   DOF  1
   INSTANCE: ELASTIC-PLASTIC-PLATE-1                                                         
  CORRESPONDING RESIDUAL FORCE       6.88    
 LARGEST INCREMENT OF DISP.         6.053E-06   AT NODE      11703   DOF  2
   INSTANCE: ELASTIC-PLASTIC-PLATE-1                                                         
 LARGEST CORRECTION TO DISP.        6.053E-06   AT NODE      11703   DOF  2
   INSTANCE: ELASTIC-PLASTIC-PLATE-1                                                         
          DISP.    CORRECTION TOO LARGE COMPARED TO DISP.    INCREMENT

 AVERAGE HEAT FLUX                  1.670E-26   TIME AVG. HEAT FLUX   1.000E-02
 LARGEST RESIDUAL HEAT FLUX        -1.953E-25   AT NODE       2443   DOF 11
   INSTANCE: ELASTIC-PLASTIC-PLATE-1                                                         
 LARGEST INCREMENT OF TEMP.        -6.915E-16   AT NODE       4631   DOF 11
   INSTANCE: ELASTIC-PLASTIC-PLATE-1                                                         
 LARGEST CORRECTION TO TEMP.       -6.915E-16   AT NODE       4631   DOF 11
   INSTANCE: ELASTIC-PLASTIC-PLATE-1                                                         
          THERE IS ZERO HEAT FLUX EVERYWHERE
 

 ***WARNING: THERE IS ZERO HEAT FLUX EVERYWHERE IN THE MODEL BASED ON THE 
             DEFAULT CRITERION. PLEASE CHECK THE VALUE OF THE AVERAGE HEAT FLUX 
             DURING THE CURRENT ITERATION TO VERIFY THAT THE HEAT FLUX IS SMALL 
             ENOUGH TO BE TREATED AS ZERO. IF NOT, PLEASE USE THE SOLUTION 
             CONTROLS TO RESET THE CRITERION FOR ZERO HEAT FLUX.

 COMPATIBILITY ERRORS:
    TYPE                NUMBER EXCEEDING TOLERANCE  MAXIMUM ERROR        IN ELEMENT
 VOLUMETRIC                          0               -1.129E-07               3306
   INSTANCE: ELASTIC-PLASTIC-PLATE-1                                                         
 
	UNSYMMETRIC NEW DIRECT SPARSE SOLVER RUNNING ON
 	1 HOST x 1 MPI RANK PER HOST x 4 THREADS PER RANK
        NUMBER OF EQUATIONS:  45663
        NUMBER OF RHS:        1
        NUMBER OF FLOPS:      1.926e+09
        SOLVER ELAPSED TIME:  40ms

               CONVERGENCE CHECKS FOR EQUILIBRIUM ITERATION     2


 AVERAGE FORCE                      1.686E+03   TIME AVG. FORCE       1.686E+03
 LARGEST SCALED RESIDUAL FORCE      3.347E-03   AT NODE      11631   DOF  1
   INSTANCE: ELASTIC-PLASTIC-PLATE-1                                                         
  CORRESPONDING RESIDUAL FORCE      3.347E-03
 LARGEST INCREMENT OF DISP.         6.053E-06   AT NODE      11703   DOF  2
   INSTANCE: ELASTIC-PLASTIC-PLATE-1                                                         
 LARGEST CORRECTION TO DISP.        4.433E-10   AT NODE      12304   DOF  1
   INSTANCE: ELASTIC-PLASTIC-PLATE-1                                                         
          THE FORCE     EQUILIBRIUM EQUATIONS HAVE CONVERGED

 AVERAGE HEAT FLUX                  1.721E-26   TIME AVG. HEAT FLUX   1.000E-02
 LARGEST RESIDUAL HEAT FLUX        -1.796E-25   AT NODE       3855   DOF 11
   INSTANCE: ELASTIC-PLASTIC-PLATE-1                                                         
 LARGEST INCREMENT OF TEMP.         8.928E-16   AT NODE       4552   DOF 11
   INSTANCE: ELASTIC-PLASTIC-PLATE-1                                                         
 LARGEST CORRECTION TO TEMP.       -9.050E-16   AT NODE       3580   DOF 11
   INSTANCE: ELASTIC-PLASTIC-PLATE-1                                                         
          THERE IS ZERO HEAT FLUX EVERYWHERE
 

 ***WARNING: THERE IS ZERO HEAT FLUX EVERYWHERE IN THE MODEL BASED ON THE 
             DEFAULT CRITERION. PLEASE CHECK THE VALUE OF THE AVERAGE HEAT FLUX 
             DURING THE CURRENT ITERATION TO VERIFY THAT THE HEAT FLUX IS SMALL 
             ENOUGH TO BE TREATED AS ZERO. IF NOT, PLEASE USE THE SOLUTION 
             CONTROLS TO RESET THE CRITERION FOR ZERO HEAT FLUX.

 COMPATIBILITY ERRORS:
    TYPE                NUMBER EXCEEDING TOLERANCE  MAXIMUM ERROR        IN ELEMENT
 VOLUMETRIC                          0               -3.032E-14               3306
   INSTANCE: ELASTIC-PLASTIC-PLATE-1                                                         

 ITERATION SUMMARY FOR THE INCREMENT:   2 TOTAL ITERATIONS, OF WHICH
   0 ARE SEVERE DISCONTINUITY ITERATIONS AND  2 ARE EQUILIBRIUM ITERATIONS.

 TIME INCREMENT COMPLETED  1.000E+03,  FRACTION OF STEP COMPLETED  1.000E-02
 STEP TIME COMPLETED       1.000E+03,  TOTAL TIME COMPLETED        1.000E+03


  INCREMENT     2 STARTS. ATTEMPT NUMBER  1, TIME INCREMENT  1.000E+03
 
	UNSYMMETRIC NEW DIRECT SPARSE SOLVER RUNNING ON
 	1 HOST x 1 MPI RANK PER HOST x 4 THREADS PER RANK
        NUMBER OF EQUATIONS:  45663
        NUMBER OF RHS:        1
        NUMBER OF FLOPS:      1.900e+09
        SOLVER ELAPSED TIME:  43ms

               CONVERGENCE CHECKS FOR EQUILIBRIUM ITERATION     1


 AVERAGE FORCE                      4.031E+03   TIME AVG. FORCE       2.859E+03
 LARGEST SCALED RESIDUAL FORCE      -13.7       AT NODE      12304   DOF  1
   INSTANCE: ELASTIC-PLASTIC-PLATE-1                                                         
  CORRESPONDING RESIDUAL FORCE      -13.7    
 LARGEST INCREMENT OF DISP.         6.052E-06   AT NODE      11703   DOF  2
   INSTANCE: ELASTIC-PLASTIC-PLATE-1                                                         
 LARGEST CORRECTION TO DISP.        9.251E-09   AT NODE        263   DOF  2
   INSTANCE: ELASTIC-PLASTIC-PLATE-1                                                         
          THE FORCE     EQUILIBRIUM EQUATIONS HAVE CONVERGED

 AVERAGE HEAT FLUX                  2.086E-13   TIME AVG. HEAT FLUX   1.000E-02
 LARGEST RESIDUAL HEAT FLUX         1.044E-11   AT NODE        263   DOF 11
   INSTANCE: ELASTIC-PLASTIC-PLATE-1                                                         
 LARGEST INCREMENT OF TEMP.         9.037E-02   AT NODE          6   DOF 11
   INSTANCE: ELASTIC-PLASTIC-PLATE-1                                                         
 LARGEST CORRECTION TO TEMP.        9.037E-02   AT NODE          6   DOF 11
   INSTANCE: ELASTIC-PLASTIC-PLATE-1                                                         
          THERE IS ZERO HEAT FLUX EVERYWHERE
 

 ***WARNING: THERE IS ZERO HEAT FLUX EVERYWHERE IN THE MODEL BASED ON THE 
             DEFAULT CRITERION. PLEASE CHECK THE VALUE OF THE AVERAGE HEAT FLUX 
             DURING THE CURRENT ITERATION TO VERIFY THAT THE HEAT FLUX IS SMALL 
             ENOUGH TO BE TREATED AS ZERO. IF NOT, PLEASE USE THE SOLUTION 
             CONTROLS TO RESET THE CRITERION FOR ZERO HEAT FLUX.

 COMPATIBILITY ERRORS:
    TYPE                NUMBER EXCEEDING TOLERANCE  MAXIMUM ERROR        IN ELEMENT
 VOLUMETRIC                          0                1.476E-10               3306
   INSTANCE: ELASTIC-PLASTIC-PLATE-1                                                         

 ITERATION SUMMARY FOR THE INCREMENT:   1 TOTAL ITERATIONS, OF WHICH
   0 ARE SEVERE DISCONTINUITY ITERATIONS AND  1 ARE EQUILIBRIUM ITERATIONS.

 TIME INCREMENT COMPLETED  1.000E+03,  FRACTION OF STEP COMPLETED  2.000E-02
 STEP TIME COMPLETED       2.000E+03,  TOTAL TIME COMPLETED        2.000E+03


  INCREMENT     3 STARTS. ATTEMPT NUMBER  1, TIME INCREMENT  1.000E+03
 
	UNSYMMETRIC NEW DIRECT SPARSE SOLVER RUNNING ON
 	1 HOST x 1 MPI RANK PER HOST x 4 THREADS PER RANK
        NUMBER OF EQUATIONS:  45663
        NUMBER OF RHS:        1
        NUMBER OF FLOPS:      1.898e+09
        SOLVER ELAPSED TIME:  44ms

               CONVERGENCE CHECKS FOR EQUILIBRIUM ITERATION     1


 AVERAGE FORCE                      6.040E+03   TIME AVG. FORCE       3.919E+03
 LARGEST SCALED RESIDUAL FORCE      1.069E+03   AT NODE      12303   DOF  1
   INSTANCE: ELASTIC-PLASTIC-PLATE-1                                                         
  CORRESPONDING RESIDUAL FORCE      1.069E+03
 LARGEST INCREMENT OF DISP.         6.053E-06   AT NODE      11703   DOF  2
   INSTANCE: ELASTIC-PLASTIC-PLATE-1                                                         
 LARGEST CORRECTION TO DISP.        1.872E-07   AT NODE      11917   DOF  2
   INSTANCE: ELASTIC-PLASTIC-PLATE-1                                                         
          FORCE     EQUILIBRIUM NOT ACHIEVED WITHIN TOLERANCE.

 AVERAGE HEAT FLUX                  3.115E-13   TIME AVG. HEAT FLUX   1.000E-02
 LARGEST RESIDUAL HEAT FLUX         6.887E-12   AT NODE        263   DOF 11
   INSTANCE: ELASTIC-PLASTIC-PLATE-1                                                         
 LARGEST INCREMENT OF TEMP.         9.127E-02   AT NODE        263   DOF 11
   INSTANCE: ELASTIC-PLASTIC-PLATE-1                                                         
 LARGEST CORRECTION TO TEMP.        5.240E-02   AT NODE        264   DOF 11
   INSTANCE: ELASTIC-PLASTIC-PLATE-1                                                         
          THERE IS ZERO HEAT FLUX EVERYWHERE
 

 ***WARNING: THERE IS ZERO HEAT FLUX EVERYWHERE IN THE MODEL BASED ON THE 
             DEFAULT CRITERION. PLEASE CHECK THE VALUE OF THE AVERAGE HEAT FLUX 
             DURING THE CURRENT ITERATION TO VERIFY THAT THE HEAT FLUX IS SMALL 
             ENOUGH TO BE TREATED AS ZERO. IF NOT, PLEASE USE THE SOLUTION 
             CONTROLS TO RESET THE CRITERION FOR ZERO HEAT FLUX.

 COMPATIBILITY ERRORS:
    TYPE                NUMBER EXCEEDING TOLERANCE  MAXIMUM ERROR        IN ELEMENT
 VOLUMETRIC                          0               -6.250E-08               3306
   INSTANCE: ELASTIC-PLASTIC-PLATE-1                                                         
 
	UNSYMMETRIC NEW DIRECT SPARSE SOLVER RUNNING ON
 	1 HOST x 1 MPI RANK PER HOST x 4 THREADS PER RANK
        NUMBER OF EQUATIONS:  45663
        NUMBER OF RHS:        1
        NUMBER OF FLOPS:      1.898e+09
        SOLVER ELAPSED TIME:  40ms

               CONVERGENCE CHECKS FOR EQUILIBRIUM ITERATION     2


 AVERAGE FORCE                      6.041E+03   TIME AVG. FORCE       3.919E+03
 LARGEST SCALED RESIDUAL FORCE       4.41       AT NODE      12303   DOF  1
   INSTANCE: ELASTIC-PLASTIC-PLATE-1                                                         
  CORRESPONDING RESIDUAL FORCE       4.41    
 LARGEST INCREMENT OF DISP.         6.053E-06   AT NODE      11703   DOF  2
   INSTANCE: ELASTIC-PLASTIC-PLATE-1                                                         
 LARGEST CORRECTION TO DISP.        1.279E-08   AT NODE          6   DOF  1
   INSTANCE: ELASTIC-PLASTIC-PLATE-1                                                         
          THE FORCE     EQUILIBRIUM EQUATIONS HAVE CONVERGED

 AVERAGE HEAT FLUX                  3.152E-13   TIME AVG. HEAT FLUX   1.000E-02
 LARGEST RESIDUAL HEAT FLUX        -4.634E-11   AT NODE        263   DOF 11
   INSTANCE: ELASTIC-PLASTIC-PLATE-1                                                         
 LARGEST INCREMENT OF TEMP.         0.132       AT NODE        263   DOF 11
   INSTANCE: ELASTIC-PLASTIC-PLATE-1                                                         
 LARGEST CORRECTION TO TEMP.        4.027E-02   AT NODE        263   DOF 11
   INSTANCE: ELASTIC-PLASTIC-PLATE-1                                                         
          THERE IS ZERO HEAT FLUX EVERYWHERE
 

 ***WARNING: THERE IS ZERO HEAT FLUX EVERYWHERE IN THE MODEL BASED ON THE 
             DEFAULT CRITERION. PLEASE CHECK THE VALUE OF THE AVERAGE HEAT FLUX 
             DURING THE CURRENT ITERATION TO VERIFY THAT THE HEAT FLUX IS SMALL 
             ENOUGH TO BE TREATED AS ZERO. IF NOT, PLEASE USE THE SOLUTION 
             CONTROLS TO RESET THE CRITERION FOR ZERO HEAT FLUX.

 COMPATIBILITY ERRORS:
    TYPE                NUMBER EXCEEDING TOLERANCE  MAXIMUM ERROR        IN ELEMENT
 VOLUMETRIC                          0               -2.224E-10               3306
   INSTANCE: ELASTIC-PLASTIC-PLATE-1                                                         

 ITERATION SUMMARY FOR THE INCREMENT:   2 TOTAL ITERATIONS, OF WHICH
   0 ARE SEVERE DISCONTINUITY ITERATIONS AND  2 ARE EQUILIBRIUM ITERATIONS.

 TIME INCREMENT COMPLETED  1.000E+03,  FRACTION OF STEP COMPLETED  3.000E-02
 STEP TIME COMPLETED       3.000E+03,  TOTAL TIME COMPLETED        3.000E+03


  INCREMENT     4 STARTS. ATTEMPT NUMBER  1, TIME INCREMENT  1.000E+03
 
	UNSYMMETRIC NEW DIRECT SPARSE SOLVER RUNNING ON
 	1 HOST x 1 MPI RANK PER HOST x 4 THREADS PER RANK
        NUMBER OF EQUATIONS:  45663
        NUMBER OF RHS:        1
        NUMBER OF FLOPS:      1.901e+09
        SOLVER ELAPSED TIME:  40ms

               CONVERGENCE CHECKS FOR EQUILIBRIUM ITERATION     1


 AVERAGE FORCE                      8.037E+03   TIME AVG. FORCE       4.949E+03
 LARGEST SCALED RESIDUAL FORCE     -1.161E+03   AT NODE      11796   DOF  1
   INSTANCE: ELASTIC-PLASTIC-PLATE-1                                                         
  CORRESPONDING RESIDUAL FORCE     -1.161E+03
 LARGEST INCREMENT OF DISP.         6.058E-06   AT NODE      11703   DOF  2
   INSTANCE: ELASTIC-PLASTIC-PLATE-1                                                         
 LARGEST CORRECTION TO DISP.        3.007E-07   AT NODE          6   DOF  1
   INSTANCE: ELASTIC-PLASTIC-PLATE-1                                                         
          FORCE     EQUILIBRIUM NOT ACHIEVED WITHIN TOLERANCE.

 AVERAGE HEAT FLUX                  4.192E-13   TIME AVG. HEAT FLUX   1.000E-02
 LARGEST RESIDUAL HEAT FLUX         3.547E-11   AT NODE       3083   DOF 11
   INSTANCE: ELASTIC-PLASTIC-PLATE-1                                                         
 LARGEST INCREMENT OF TEMP.        -0.225       AT NODE        263   DOF 11
   INSTANCE: ELASTIC-PLASTIC-PLATE-1                                                         
 LARGEST CORRECTION TO TEMP.       -0.357       AT NODE        263   DOF 11
   INSTANCE: ELASTIC-PLASTIC-PLATE-1                                                         
          THERE IS ZERO HEAT FLUX EVERYWHERE
 

 ***WARNING: THERE IS ZERO HEAT FLUX EVERYWHERE IN THE MODEL BASED ON THE 
             DEFAULT CRITERION. PLEASE CHECK THE VALUE OF THE AVERAGE HEAT FLUX 
             DURING THE CURRENT ITERATION TO VERIFY THAT THE HEAT FLUX IS SMALL 
             ENOUGH TO BE TREATED AS ZERO. IF NOT, PLEASE USE THE SOLUTION 
             CONTROLS TO RESET THE CRITERION FOR ZERO HEAT FLUX.

 COMPATIBILITY ERRORS:
    TYPE                NUMBER EXCEEDING TOLERANCE  MAXIMUM ERROR        IN ELEMENT
 VOLUMETRIC                          0               -5.049E-08               3031
   INSTANCE: ELASTIC-PLASTIC-PLATE-1                                                         
 
	UNSYMMETRIC NEW DIRECT SPARSE SOLVER RUNNING ON
 	1 HOST x 1 MPI RANK PER HOST x 4 THREADS PER RANK
        NUMBER OF EQUATIONS:  45663
        NUMBER OF RHS:        1
        NUMBER OF FLOPS:      1.900e+09
        SOLVER ELAPSED TIME:  39ms

               CONVERGENCE CHECKS FOR EQUILIBRIUM ITERATION     2


 AVERAGE FORCE                      8.037E+03   TIME AVG. FORCE       4.949E+03
 LARGEST SCALED RESIDUAL FORCE      -18.9       AT NODE      11798   DOF  1
   INSTANCE: ELASTIC-PLASTIC-PLATE-1                                                         
  CORRESPONDING RESIDUAL FORCE      -18.9    
 LARGEST INCREMENT OF DISP.         6.058E-06   AT NODE      11703   DOF  2
   INSTANCE: ELASTIC-PLASTIC-PLATE-1                                                         
 LARGEST CORRECTION TO DISP.        3.146E-08   AT NODE          6   DOF  1
   INSTANCE: ELASTIC-PLASTIC-PLATE-1                                                         
          THE FORCE     EQUILIBRIUM EQUATIONS HAVE CONVERGED

 AVERAGE HEAT FLUX                  4.182E-13   TIME AVG. HEAT FLUX   1.000E-02
 LARGEST RESIDUAL HEAT FLUX        -6.840E-11   AT NODE       3083   DOF 11
   INSTANCE: ELASTIC-PLASTIC-PLATE-1                                                         
 LARGEST INCREMENT OF TEMP.        -0.419       AT NODE        263   DOF 11
   INSTANCE: ELASTIC-PLASTIC-PLATE-1                                                         
 LARGEST CORRECTION TO TEMP.       -0.243       AT NODE          6   DOF 11
   INSTANCE: ELASTIC-PLASTIC-PLATE-1                                                         
          THERE IS ZERO HEAT FLUX EVERYWHERE
 

 ***WARNING: THERE IS ZERO HEAT FLUX EVERYWHERE IN THE MODEL BASED ON THE 
             DEFAULT CRITERION. PLEASE CHECK THE VALUE OF THE AVERAGE HEAT FLUX 
             DURING THE CURRENT ITERATION TO VERIFY THAT THE HEAT FLUX IS SMALL 
             ENOUGH TO BE TREATED AS ZERO. IF NOT, PLEASE USE THE SOLUTION 
             CONTROLS TO RESET THE CRITERION FOR ZERO HEAT FLUX.

 COMPATIBILITY ERRORS:
    TYPE                NUMBER EXCEEDING TOLERANCE  MAXIMUM ERROR        IN ELEMENT
 VOLUMETRIC                          0               -7.835E-10               2989
   INSTANCE: ELASTIC-PLASTIC-PLATE-1                                                         

 ITERATION SUMMARY FOR THE INCREMENT:   2 TOTAL ITERATIONS, OF WHICH
   0 ARE SEVERE DISCONTINUITY ITERATIONS AND  2 ARE EQUILIBRIUM ITERATIONS.

 TIME INCREMENT COMPLETED  1.000E+03,  FRACTION OF STEP COMPLETED  4.000E-02
 STEP TIME COMPLETED       4.000E+03,  TOTAL TIME COMPLETED        4.000E+03


  INCREMENT     5 STARTS. ATTEMPT NUMBER  1, TIME INCREMENT  1.000E+03
 
	UNSYMMETRIC NEW DIRECT SPARSE SOLVER RUNNING ON
 	1 HOST x 1 MPI RANK PER HOST x 4 THREADS PER RANK
        NUMBER OF EQUATIONS:  45663
        NUMBER OF RHS:        1
        NUMBER OF FLOPS:      1.950e+09
        SOLVER ELAPSED TIME:  40ms

               CONVERGENCE CHECKS FOR EQUILIBRIUM ITERATION     1


 AVERAGE FORCE                      1.001E+04   TIME AVG. FORCE       5.961E+03
 LARGEST SCALED RESIDUAL FORCE      1.121E+03   AT NODE       2977   DOF  1
   INSTANCE: ELASTIC-PLASTIC-PLATE-1                                                         
  CORRESPONDING RESIDUAL FORCE      1.121E+03
 LARGEST INCREMENT OF DISP.         6.064E-06   AT NODE      11703   DOF  2
   INSTANCE: ELASTIC-PLASTIC-PLATE-1                                                         
 LARGEST CORRECTION TO DISP.        3.201E-07   AT NODE      12303   DOF  1
   INSTANCE: ELASTIC-PLASTIC-PLATE-1                                                         
          FORCE     EQUILIBRIUM NOT ACHIEVED WITHIN TOLERANCE.

 AVERAGE HEAT FLUX                  5.218E-13   TIME AVG. HEAT FLUX   1.000E-02
 LARGEST RESIDUAL HEAT FLUX         1.934E-11   AT NODE       2891   DOF 11
   INSTANCE: ELASTIC-PLASTIC-PLATE-1                                                         
 LARGEST INCREMENT OF TEMP.        -0.144       AT NODE       3083   DOF 11
   INSTANCE: ELASTIC-PLASTIC-PLATE-1                                                         
 LARGEST CORRECTION TO TEMP.        0.548       AT NODE        263   DOF 11
   INSTANCE: ELASTIC-PLASTIC-PLATE-1                                                         
          THERE IS ZERO HEAT FLUX EVERYWHERE
 

 ***WARNING: THERE IS ZERO HEAT FLUX EVERYWHERE IN THE MODEL BASED ON THE 
             DEFAULT CRITERION. PLEASE CHECK THE VALUE OF THE AVERAGE HEAT FLUX 
             DURING THE CURRENT ITERATION TO VERIFY THAT THE HEAT FLUX IS SMALL 
             ENOUGH TO BE TREATED AS ZERO. IF NOT, PLEASE USE THE SOLUTION 
             CONTROLS TO RESET THE CRITERION FOR ZERO HEAT FLUX.

 COMPATIBILITY ERRORS:
    TYPE                NUMBER EXCEEDING TOLERANCE  MAXIMUM ERROR        IN ELEMENT
 VOLUMETRIC                          0               -2.378E-08               3029
   INSTANCE: ELASTIC-PLASTIC-PLATE-1                                                         
 
	UNSYMMETRIC NEW DIRECT SPARSE SOLVER RUNNING ON
 	1 HOST x 1 MPI RANK PER HOST x 4 THREADS PER RANK
        NUMBER OF EQUATIONS:  45663
        NUMBER OF RHS:        1
        NUMBER OF FLOPS:      1.952e+09
        SOLVER ELAPSED TIME:  40ms

               CONVERGENCE CHECKS FOR EQUILIBRIUM ITERATION     2


 AVERAGE FORCE                      1.001E+04   TIME AVG. FORCE       5.961E+03
 LARGEST SCALED RESIDUAL FORCE       139.       AT NODE      11919   DOF  2
   INSTANCE: ELASTIC-PLASTIC-PLATE-1                                                         
  CORRESPONDING RESIDUAL FORCE       139.    
 LARGEST INCREMENT OF DISP.         6.064E-06   AT NODE      11703   DOF  2
   INSTANCE: ELASTIC-PLASTIC-PLATE-1                                                         
 LARGEST CORRECTION TO DISP.        2.654E-08   AT NODE      11632   DOF  1
   INSTANCE: ELASTIC-PLASTIC-PLATE-1                                                         
          FORCE     EQUILIBRIUM NOT ACHIEVED WITHIN TOLERANCE.

 AVERAGE HEAT FLUX                  5.165E-13   TIME AVG. HEAT FLUX   1.000E-02
 LARGEST RESIDUAL HEAT FLUX        -2.651E-11   AT NODE       2891   DOF 11
   INSTANCE: ELASTIC-PLASTIC-PLATE-1                                                         
 LARGEST INCREMENT OF TEMP.        -0.189       AT NODE       3083   DOF 11
   INSTANCE: ELASTIC-PLASTIC-PLATE-1                                                         
 LARGEST CORRECTION TO TEMP.       -7.499E-02   AT NODE        263   DOF 11
   INSTANCE: ELASTIC-PLASTIC-PLATE-1                                                         
          THERE IS ZERO HEAT FLUX EVERYWHERE
 

 ***WARNING: THERE IS ZERO HEAT FLUX EVERYWHERE IN THE MODEL BASED ON THE 
             DEFAULT CRITERION. PLEASE CHECK THE VALUE OF THE AVERAGE HEAT FLUX 
             DURING THE CURRENT ITERATION TO VERIFY THAT THE HEAT FLUX IS SMALL 
             ENOUGH TO BE TREATED AS ZERO. IF NOT, PLEASE USE THE SOLUTION 
             CONTROLS TO RESET THE CRITERION FOR ZERO HEAT FLUX.

 COMPATIBILITY ERRORS:
    TYPE                NUMBER EXCEEDING TOLERANCE  MAXIMUM ERROR        IN ELEMENT
 VOLUMETRIC                          0               -1.651E-10               2912
   INSTANCE: ELASTIC-PLASTIC-PLATE-1                                                         
 
	UNSYMMETRIC NEW DIRECT SPARSE SOLVER RUNNING ON
 	1 HOST x 1 MPI RANK PER HOST x 4 THREADS PER RANK
        NUMBER OF EQUATIONS:  45663
        NUMBER OF RHS:        1
        NUMBER OF FLOPS:      1.952e+09
        SOLVER ELAPSED TIME:  39ms

               CONVERGENCE CHECKS FOR EQUILIBRIUM ITERATION     3


 AVERAGE FORCE                      1.001E+04   TIME AVG. FORCE       5.962E+03
 LARGEST SCALED RESIDUAL FORCE     -0.154       AT NODE      11919   DOF  2
   INSTANCE: ELASTIC-PLASTIC-PLATE-1                                                         
  CORRESPONDING RESIDUAL FORCE     -0.154    
 LARGEST INCREMENT OF DISP.         6.064E-06   AT NODE      11703   DOF  2
   INSTANCE: ELASTIC-PLASTIC-PLATE-1                                                         
 LARGEST CORRECTION TO DISP.        5.500E-10   AT NODE      10369   DOF  1
   INSTANCE: ELASTIC-PLASTIC-PLATE-1                                                         
          THE FORCE     EQUILIBRIUM EQUATIONS HAVE CONVERGED

 AVERAGE HEAT FLUX                  5.132E-13   TIME AVG. HEAT FLUX   1.000E-02
 LARGEST RESIDUAL HEAT FLUX        -3.278E-12   AT NODE       2717   DOF 11
   INSTANCE: ELASTIC-PLASTIC-PLATE-1                                                         
 LARGEST INCREMENT OF TEMP.        -0.106       AT NODE        262   DOF 11
   INSTANCE: ELASTIC-PLASTIC-PLATE-1                                                         
 LARGEST CORRECTION TO TEMP.        0.110       AT NODE          6   DOF 11
   INSTANCE: ELASTIC-PLASTIC-PLATE-1                                                         
          THERE IS ZERO HEAT FLUX EVERYWHERE
 

 ***WARNING: THERE IS ZERO HEAT FLUX EVERYWHERE IN THE MODEL BASED ON THE 
             DEFAULT CRITERION. PLEASE CHECK THE VALUE OF THE AVERAGE HEAT FLUX 
             DURING THE CURRENT ITERATION TO VERIFY THAT THE HEAT FLUX IS SMALL 
             ENOUGH TO BE TREATED AS ZERO. IF NOT, PLEASE USE THE SOLUTION 
             CONTROLS TO RESET THE CRITERION FOR ZERO HEAT FLUX.

 COMPATIBILITY ERRORS:
    TYPE                NUMBER EXCEEDING TOLERANCE  MAXIMUM ERROR        IN ELEMENT
 VOLUMETRIC                          0                4.594E-12               2497
   INSTANCE: ELASTIC-PLASTIC-PLATE-1                                                         

 ITERATION SUMMARY FOR THE INCREMENT:   3 TOTAL ITERATIONS, OF WHICH
   0 ARE SEVERE DISCONTINUITY ITERATIONS AND  3 ARE EQUILIBRIUM ITERATIONS.

 TIME INCREMENT COMPLETED  1.000E+03,  FRACTION OF STEP COMPLETED  5.000E-02
 STEP TIME COMPLETED       5.000E+03,  TOTAL TIME COMPLETED        5.000E+03


  INCREMENT     6 STARTS. ATTEMPT NUMBER  1, TIME INCREMENT  1.000E+03
 
	UNSYMMETRIC NEW DIRECT SPARSE SOLVER RUNNING ON
 	1 HOST x 1 MPI RANK PER HOST x 4 THREADS PER RANK
        NUMBER OF EQUATIONS:  45663
        NUMBER OF RHS:        1
        NUMBER OF FLOPS:      1.981e+09
        SOLVER ELAPSED TIME:  43ms

               CONVERGENCE CHECKS FOR EQUILIBRIUM ITERATION     1


 AVERAGE FORCE                      1.196E+04   TIME AVG. FORCE       6.962E+03
 LARGEST SCALED RESIDUAL FORCE     -1.758E+03   AT NODE       9004   DOF  2
   INSTANCE: ELASTIC-PLASTIC-PLATE-1                                                         
  CORRESPONDING RESIDUAL FORCE     -1.758E+03
 LARGEST INCREMENT OF DISP.         6.071E-06   AT NODE      11703   DOF  2
   INSTANCE: ELASTIC-PLASTIC-PLATE-1                                                         
 LARGEST CORRECTION TO DISP.        3.219E-07   AT NODE          6   DOF  1
   INSTANCE: ELASTIC-PLASTIC-PLATE-1                                                         
          FORCE     EQUILIBRIUM NOT ACHIEVED WITHIN TOLERANCE.

 AVERAGE HEAT FLUX                  6.182E-13   TIME AVG. HEAT FLUX   1.000E-02
 LARGEST RESIDUAL HEAT FLUX         1.477E-11   AT NODE       2745   DOF 11
   INSTANCE: ELASTIC-PLASTIC-PLATE-1                                                         
 LARGEST INCREMENT OF TEMP.         5.724E-02   AT NODE        266   DOF 11
   INSTANCE: ELASTIC-PLASTIC-PLATE-1                                                         
 LARGEST CORRECTION TO TEMP.        6.698E-02   AT NODE       3083   DOF 11
   INSTANCE: ELASTIC-PLASTIC-PLATE-1                                                         
          THERE IS ZERO HEAT FLUX EVERYWHERE
 

 ***WARNING: THERE IS ZERO HEAT FLUX EVERYWHERE IN THE MODEL BASED ON THE 
             DEFAULT CRITERION. PLEASE CHECK THE VALUE OF THE AVERAGE HEAT FLUX 
             DURING THE CURRENT ITERATION TO VERIFY THAT THE HEAT FLUX IS SMALL 
             ENOUGH TO BE TREATED AS ZERO. IF NOT, PLEASE USE THE SOLUTION 
             CONTROLS TO RESET THE CRITERION FOR ZERO HEAT FLUX.

 COMPATIBILITY ERRORS:
    TYPE                NUMBER EXCEEDING TOLERANCE  MAXIMUM ERROR        IN ELEMENT
 VOLUMETRIC                          0               -1.589E-08               2497
   INSTANCE: ELASTIC-PLASTIC-PLATE-1                                                         
 
	UNSYMMETRIC NEW DIRECT SPARSE SOLVER RUNNING ON
 	1 HOST x 1 MPI RANK PER HOST x 4 THREADS PER RANK
        NUMBER OF EQUATIONS:  45663
        NUMBER OF RHS:        1
        NUMBER OF FLOPS:      1.981e+09
        SOLVER ELAPSED TIME:  43ms

               CONVERGENCE CHECKS FOR EQUILIBRIUM ITERATION     2


 AVERAGE FORCE                      1.196E+04   TIME AVG. FORCE       6.962E+03
 LARGEST SCALED RESIDUAL FORCE      -31.6       AT NODE      12017   DOF  2
   INSTANCE: ELASTIC-PLASTIC-PLATE-1                                                         
  CORRESPONDING RESIDUAL FORCE      -31.6    
 LARGEST INCREMENT OF DISP.         6.071E-06   AT NODE      11703   DOF  2
   INSTANCE: ELASTIC-PLASTIC-PLATE-1                                                         
 LARGEST CORRECTION TO DISP.        2.643E-08   AT NODE      10354   DOF  1
   INSTANCE: ELASTIC-PLASTIC-PLATE-1                                                         
          THE FORCE     EQUILIBRIUM EQUATIONS HAVE CONVERGED

 AVERAGE HEAT FLUX                  6.136E-13   TIME AVG. HEAT FLUX   1.000E-02
 LARGEST RESIDUAL HEAT FLUX        -2.469E-11   AT NODE       2745   DOF 11
   INSTANCE: ELASTIC-PLASTIC-PLATE-1                                                         
 LARGEST INCREMENT OF TEMP.         0.110       AT NODE        267   DOF 11
   INSTANCE: ELASTIC-PLASTIC-PLATE-1                                                         
 LARGEST CORRECTION TO TEMP.        6.407E-02   AT NODE        267   DOF 11
   INSTANCE: ELASTIC-PLASTIC-PLATE-1                                                         
          THERE IS ZERO HEAT FLUX EVERYWHERE
 

 ***WARNING: THERE IS ZERO HEAT FLUX EVERYWHERE IN THE MODEL BASED ON THE 
             DEFAULT CRITERION. PLEASE CHECK THE VALUE OF THE AVERAGE HEAT FLUX 
             DURING THE CURRENT ITERATION TO VERIFY THAT THE HEAT FLUX IS SMALL 
             ENOUGH TO BE TREATED AS ZERO. IF NOT, PLEASE USE THE SOLUTION 
             CONTROLS TO RESET THE CRITERION FOR ZERO HEAT FLUX.

 COMPATIBILITY ERRORS:
    TYPE                NUMBER EXCEEDING TOLERANCE  MAXIMUM ERROR        IN ELEMENT
 VOLUMETRIC                          0               -1.197E-10               2953
   INSTANCE: ELASTIC-PLASTIC-PLATE-1                                                         

 ITERATION SUMMARY FOR THE INCREMENT:   2 TOTAL ITERATIONS, OF WHICH
   0 ARE SEVERE DISCONTINUITY ITERATIONS AND  2 ARE EQUILIBRIUM ITERATIONS.

 TIME INCREMENT COMPLETED  1.000E+03,  FRACTION OF STEP COMPLETED  6.000E-02
 STEP TIME COMPLETED       6.000E+03,  TOTAL TIME COMPLETED        6.000E+03


  INCREMENT     7 STARTS. ATTEMPT NUMBER  1, TIME INCREMENT  1.000E+03
 
	UNSYMMETRIC NEW DIRECT SPARSE SOLVER RUNNING ON
 	1 HOST x 1 MPI RANK PER HOST x 4 THREADS PER RANK
        NUMBER OF EQUATIONS:  45663
        NUMBER OF RHS:        1
        NUMBER OF FLOPS:      2.051e+09
        SOLVER ELAPSED TIME:  40ms

               CONVERGENCE CHECKS FOR EQUILIBRIUM ITERATION     1


 AVERAGE FORCE                      1.388E+04   TIME AVG. FORCE       7.951E+03
 LARGEST SCALED RESIDUAL FORCE       709.       AT NODE      11790   DOF  1
   INSTANCE: ELASTIC-PLASTIC-PLATE-1                                                         
  CORRESPONDING RESIDUAL FORCE       709.    
 LARGEST INCREMENT OF DISP.         6.074E-06   AT NODE      11703   DOF  2
   INSTANCE: ELASTIC-PLASTIC-PLATE-1                                                         
 LARGEST CORRECTION TO DISP.        3.373E-07   AT NODE        260   DOF  1
   INSTANCE: ELASTIC-PLASTIC-PLATE-1                                                         
          FORCE     EQUILIBRIUM NOT ACHIEVED WITHIN TOLERANCE.

 AVERAGE HEAT FLUX                  7.117E-13   TIME AVG. HEAT FLUX   1.000E-02
 LARGEST RESIDUAL HEAT FLUX         9.272E-12   AT NODE       2890   DOF 11
   INSTANCE: ELASTIC-PLASTIC-PLATE-1                                                         
 LARGEST INCREMENT OF TEMP.        -9.520E-02   AT NODE        261   DOF 11
   INSTANCE: ELASTIC-PLASTIC-PLATE-1                                                         
 LARGEST CORRECTION TO TEMP.       -0.133       AT NODE        267   DOF 11
   INSTANCE: ELASTIC-PLASTIC-PLATE-1                                                         
          THERE IS ZERO HEAT FLUX EVERYWHERE
 

 ***WARNING: THERE IS ZERO HEAT FLUX EVERYWHERE IN THE MODEL BASED ON THE 
             DEFAULT CRITERION. PLEASE CHECK THE VALUE OF THE AVERAGE HEAT FLUX 
             DURING THE CURRENT ITERATION TO VERIFY THAT THE HEAT FLUX IS SMALL 
             ENOUGH TO BE TREATED AS ZERO. IF NOT, PLEASE USE THE SOLUTION 
             CONTROLS TO RESET THE CRITERION FOR ZERO HEAT FLUX.

 COMPATIBILITY ERRORS:
    TYPE                NUMBER EXCEEDING TOLERANCE  MAXIMUM ERROR        IN ELEMENT
 VOLUMETRIC                          0               -1.485E-08               3243
   INSTANCE: ELASTIC-PLASTIC-PLATE-1                                                         
 
	UNSYMMETRIC NEW DIRECT SPARSE SOLVER RUNNING ON
 	1 HOST x 1 MPI RANK PER HOST x 4 THREADS PER RANK
        NUMBER OF EQUATIONS:  45663
        NUMBER OF RHS:        1
        NUMBER OF FLOPS:      2.052e+09
        SOLVER ELAPSED TIME:  40ms

               CONVERGENCE CHECKS FOR EQUILIBRIUM ITERATION     2


 AVERAGE FORCE                      1.389E+04   TIME AVG. FORCE       7.951E+03
 LARGEST SCALED RESIDUAL FORCE       5.12       AT NODE      11712   DOF  2
   INSTANCE: ELASTIC-PLASTIC-PLATE-1                                                         
  CORRESPONDING RESIDUAL FORCE       5.12    
 LARGEST INCREMENT OF DISP.         6.074E-06   AT NODE      11703   DOF  2
   INSTANCE: ELASTIC-PLASTIC-PLATE-1                                                         
 LARGEST CORRECTION TO DISP.        1.937E-08   AT NODE      11712   DOF  1
   INSTANCE: ELASTIC-PLASTIC-PLATE-1                                                         
          THE FORCE     EQUILIBRIUM EQUATIONS HAVE CONVERGED

 AVERAGE HEAT FLUX                  7.064E-13   TIME AVG. HEAT FLUX   1.000E-02
 LARGEST RESIDUAL HEAT FLUX         3.201E-11   AT NODE       2814   DOF 11
   INSTANCE: ELASTIC-PLASTIC-PLATE-1                                                         
 LARGEST INCREMENT OF TEMP.        -0.133       AT NODE        261   DOF 11
   INSTANCE: ELASTIC-PLASTIC-PLATE-1                                                         
 LARGEST CORRECTION TO TEMP.       -3.781E-02   AT NODE        261   DOF 11
   INSTANCE: ELASTIC-PLASTIC-PLATE-1                                                         
          THERE IS ZERO HEAT FLUX EVERYWHERE
 

 ***WARNING: THERE IS ZERO HEAT FLUX EVERYWHERE IN THE MODEL BASED ON THE 
             DEFAULT CRITERION. PLEASE CHECK THE VALUE OF THE AVERAGE HEAT FLUX 
             DURING THE CURRENT ITERATION TO VERIFY THAT THE HEAT FLUX IS SMALL 
             ENOUGH TO BE TREATED AS ZERO. IF NOT, PLEASE USE THE SOLUTION 
             CONTROLS TO RESET THE CRITERION FOR ZERO HEAT FLUX.

 COMPATIBILITY ERRORS:
    TYPE                NUMBER EXCEEDING TOLERANCE  MAXIMUM ERROR        IN ELEMENT
 VOLUMETRIC                          0               -8.950E-11               2953
   INSTANCE: ELASTIC-PLASTIC-PLATE-1                                                         

 ITERATION SUMMARY FOR THE INCREMENT:   2 TOTAL ITERATIONS, OF WHICH
   0 ARE SEVERE DISCONTINUITY ITERATIONS AND  2 ARE EQUILIBRIUM ITERATIONS.

 TIME INCREMENT COMPLETED  1.000E+03,  FRACTION OF STEP COMPLETED  7.000E-02
 STEP TIME COMPLETED       7.000E+03,  TOTAL TIME COMPLETED        7.000E+03


  INCREMENT     8 STARTS. ATTEMPT NUMBER  1, TIME INCREMENT  1.000E+03
 
	UNSYMMETRIC NEW DIRECT SPARSE SOLVER RUNNING ON
 	1 HOST x 1 MPI RANK PER HOST x 4 THREADS PER RANK
        NUMBER OF EQUATIONS:  45663
        NUMBER OF RHS:        1
        NUMBER OF FLOPS:      2.062e+09
        SOLVER ELAPSED TIME:  39ms

               CONVERGENCE CHECKS FOR EQUILIBRIUM ITERATION     1


 AVERAGE FORCE                      1.576E+04   TIME AVG. FORCE       8.928E+03
 LARGEST SCALED RESIDUAL FORCE       367.       AT NODE      11437   DOF  2
   INSTANCE: ELASTIC-PLASTIC-PLATE-1                                                         
  CORRESPONDING RESIDUAL FORCE       367.    
 LARGEST INCREMENT OF DISP.         6.057E-06   AT NODE      11703   DOF  2
   INSTANCE: ELASTIC-PLASTIC-PLATE-1                                                         
 LARGEST CORRECTION TO DISP.        3.746E-07   AT NODE        259   DOF  1
   INSTANCE: ELASTIC-PLASTIC-PLATE-1                                                         
          FORCE     EQUILIBRIUM NOT ACHIEVED WITHIN TOLERANCE.

 AVERAGE HEAT FLUX                  8.039E-13   TIME AVG. HEAT FLUX   1.000E-02
 LARGEST RESIDUAL HEAT FLUX         1.273E-11   AT NODE       2814   DOF 11
   INSTANCE: ELASTIC-PLASTIC-PLATE-1                                                         
 LARGEST INCREMENT OF TEMP.        -0.119       AT NODE        260   DOF 11
   INSTANCE: ELASTIC-PLASTIC-PLATE-1                                                         
 LARGEST CORRECTION TO TEMP.       -0.188       AT NODE        260   DOF 11
   INSTANCE: ELASTIC-PLASTIC-PLATE-1                                                         
          THERE IS ZERO HEAT FLUX EVERYWHERE
 

 ***WARNING: THERE IS ZERO HEAT FLUX EVERYWHERE IN THE MODEL BASED ON THE 
             DEFAULT CRITERION. PLEASE CHECK THE VALUE OF THE AVERAGE HEAT FLUX 
             DURING THE CURRENT ITERATION TO VERIFY THAT THE HEAT FLUX IS SMALL 
             ENOUGH TO BE TREATED AS ZERO. IF NOT, PLEASE USE THE SOLUTION 
             CONTROLS TO RESET THE CRITERION FOR ZERO HEAT FLUX.

 COMPATIBILITY ERRORS:
    TYPE                NUMBER EXCEEDING TOLERANCE  MAXIMUM ERROR        IN ELEMENT
 VOLUMETRIC                          0               -1.102E-08               3379
   INSTANCE: ELASTIC-PLASTIC-PLATE-1                                                         
 
	UNSYMMETRIC NEW DIRECT SPARSE SOLVER RUNNING ON
 	1 HOST x 1 MPI RANK PER HOST x 4 THREADS PER RANK
        NUMBER OF EQUATIONS:  45663
        NUMBER OF RHS:        1
        NUMBER OF FLOPS:      2.067e+09
        SOLVER ELAPSED TIME:  50ms

               CONVERGENCE CHECKS FOR EQUILIBRIUM ITERATION     2


 AVERAGE FORCE                      1.577E+04   TIME AVG. FORCE       8.928E+03
 LARGEST SCALED RESIDUAL FORCE       59.7       AT NODE      13060   DOF  1
   INSTANCE: ELASTIC-PLASTIC-PLATE-1                                                         
  CORRESPONDING RESIDUAL FORCE       59.7    
 LARGEST INCREMENT OF DISP.         6.057E-06   AT NODE      11703   DOF  2
   INSTANCE: ELASTIC-PLASTIC-PLATE-1                                                         
 LARGEST CORRECTION TO DISP.        9.799E-09   AT NODE        259   DOF  1
   INSTANCE: ELASTIC-PLASTIC-PLATE-1                                                         
          FORCE     EQUILIBRIUM NOT ACHIEVED WITHIN TOLERANCE.

 AVERAGE HEAT FLUX                  7.978E-13   TIME AVG. HEAT FLUX   1.000E-02
 LARGEST RESIDUAL HEAT FLUX         2.824E-11   AT NODE       2815   DOF 11
   INSTANCE: ELASTIC-PLASTIC-PLATE-1                                                         
 LARGEST INCREMENT OF TEMP.        -0.144       AT NODE        260   DOF 11
   INSTANCE: ELASTIC-PLASTIC-PLATE-1                                                         
 LARGEST CORRECTION TO TEMP.       -3.745E-02   AT NODE       2996   DOF 11
   INSTANCE: ELASTIC-PLASTIC-PLATE-1                                                         
          THERE IS ZERO HEAT FLUX EVERYWHERE
 

 ***WARNING: THERE IS ZERO HEAT FLUX EVERYWHERE IN THE MODEL BASED ON THE 
             DEFAULT CRITERION. PLEASE CHECK THE VALUE OF THE AVERAGE HEAT FLUX 
             DURING THE CURRENT ITERATION TO VERIFY THAT THE HEAT FLUX IS SMALL 
             ENOUGH TO BE TREATED AS ZERO. IF NOT, PLEASE USE THE SOLUTION 
             CONTROLS TO RESET THE CRITERION FOR ZERO HEAT FLUX.

 COMPATIBILITY ERRORS:
    TYPE                NUMBER EXCEEDING TOLERANCE  MAXIMUM ERROR        IN ELEMENT
 VOLUMETRIC                          0               -2.466E-11               3521
   INSTANCE: ELASTIC-PLASTIC-PLATE-1                                                         
 
	UNSYMMETRIC NEW DIRECT SPARSE SOLVER RUNNING ON
 	1 HOST x 1 MPI RANK PER HOST x 4 THREADS PER RANK
        NUMBER OF EQUATIONS:  45663
        NUMBER OF RHS:        1
        NUMBER OF FLOPS:      2.061e+09
        SOLVER ELAPSED TIME:  39ms

               CONVERGENCE CHECKS FOR EQUILIBRIUM ITERATION     3


 AVERAGE FORCE                      1.577E+04   TIME AVG. FORCE       8.928E+03
 LARGEST SCALED RESIDUAL FORCE       5.02       AT NODE      13336   DOF  2
   INSTANCE: ELASTIC-PLASTIC-PLATE-1                                                         
  CORRESPONDING RESIDUAL FORCE       5.02    
 LARGEST INCREMENT OF DISP.         6.057E-06   AT NODE      11703   DOF  2
   INSTANCE: ELASTIC-PLASTIC-PLATE-1                                                         
 LARGEST CORRECTION TO DISP.       -2.392E-10   AT NODE      13060   DOF  2
   INSTANCE: ELASTIC-PLASTIC-PLATE-1                                                         
          THE FORCE     EQUILIBRIUM EQUATIONS HAVE CONVERGED

 AVERAGE HEAT FLUX                  7.952E-13   TIME AVG. HEAT FLUX   1.000E-02
 LARGEST RESIDUAL HEAT FLUX         1.493E-12   AT NODE       3299   DOF 11
   INSTANCE: ELASTIC-PLASTIC-PLATE-1                                                         
 LARGEST INCREMENT OF TEMP.        -8.645E-02   AT NODE          6   DOF 11
   INSTANCE: ELASTIC-PLASTIC-PLATE-1                                                         
 LARGEST CORRECTION TO TEMP.        0.116       AT NODE       2815   DOF 11
   INSTANCE: ELASTIC-PLASTIC-PLATE-1                                                         
          THERE IS ZERO HEAT FLUX EVERYWHERE
 

 ***WARNING: THERE IS ZERO HEAT FLUX EVERYWHERE IN THE MODEL BASED ON THE 
             DEFAULT CRITERION. PLEASE CHECK THE VALUE OF THE AVERAGE HEAT FLUX 
             DURING THE CURRENT ITERATION TO VERIFY THAT THE HEAT FLUX IS SMALL 
             ENOUGH TO BE TREATED AS ZERO. IF NOT, PLEASE USE THE SOLUTION 
             CONTROLS TO RESET THE CRITERION FOR ZERO HEAT FLUX.

 COMPATIBILITY ERRORS:
    TYPE                NUMBER EXCEEDING TOLERANCE  MAXIMUM ERROR        IN ELEMENT
 VOLUMETRIC                          0               -2.608E-13               3881
   INSTANCE: ELASTIC-PLASTIC-PLATE-1                                                         

 ITERATION SUMMARY FOR THE INCREMENT:   3 TOTAL ITERATIONS, OF WHICH
   0 ARE SEVERE DISCONTINUITY ITERATIONS AND  3 ARE EQUILIBRIUM ITERATIONS.

 TIME INCREMENT COMPLETED  1.000E+03,  FRACTION OF STEP COMPLETED  8.000E-02
 STEP TIME COMPLETED       8.000E+03,  TOTAL TIME COMPLETED        8.000E+03


  INCREMENT     9 STARTS. ATTEMPT NUMBER  1, TIME INCREMENT  1.000E+03
 
	UNSYMMETRIC NEW DIRECT SPARSE SOLVER RUNNING ON
 	1 HOST x 1 MPI RANK PER HOST x 4 THREADS PER RANK
        NUMBER OF EQUATIONS:  45663
        NUMBER OF RHS:        1
        NUMBER OF FLOPS:      2.070e+09
        SOLVER ELAPSED TIME:  39ms

               CONVERGENCE CHECKS FOR EQUILIBRIUM ITERATION     1


 AVERAGE FORCE                      1.745E+04   TIME AVG. FORCE       9.876E+03
 LARGEST SCALED RESIDUAL FORCE      3.348E+03   AT NODE      10822   DOF  2
   INSTANCE: ELASTIC-PLASTIC-PLATE-1                                                         
  CORRESPONDING RESIDUAL FORCE      3.348E+03
 LARGEST INCREMENT OF DISP.         6.000E-06   AT NODE          3   DOF  2
   INSTANCE: ELASTIC-PLASTIC-PLATE-1                                                         
 LARGEST CORRECTION TO DISP.        5.822E-07   AT NODE      11260   DOF  2
   INSTANCE: ELASTIC-PLASTIC-PLATE-1                                                         
          FORCE     EQUILIBRIUM NOT ACHIEVED WITHIN TOLERANCE.

 AVERAGE HEAT FLUX                  8.904E-13   TIME AVG. HEAT FLUX   1.000E-02
 LARGEST RESIDUAL HEAT FLUX         8.381E-12   AT NODE       2815   DOF 11
   INSTANCE: ELASTIC-PLASTIC-PLATE-1                                                         
 LARGEST INCREMENT OF TEMP.        -6.246E-02   AT NODE          6   DOF 11
   INSTANCE: ELASTIC-PLASTIC-PLATE-1                                                         
 LARGEST CORRECTION TO TEMP.       -3.093E-02   AT NODE        258   DOF 11
   INSTANCE: ELASTIC-PLASTIC-PLATE-1                                                         
          THERE IS ZERO HEAT FLUX EVERYWHERE
 

 ***WARNING: THERE IS ZERO HEAT FLUX EVERYWHERE IN THE MODEL BASED ON THE 
             DEFAULT CRITERION. PLEASE CHECK THE VALUE OF THE AVERAGE HEAT FLUX 
             DURING THE CURRENT ITERATION TO VERIFY THAT THE HEAT FLUX IS SMALL 
             ENOUGH TO BE TREATED AS ZERO. IF NOT, PLEASE USE THE SOLUTION 
             CONTROLS TO RESET THE CRITERION FOR ZERO HEAT FLUX.

 COMPATIBILITY ERRORS:
    TYPE                NUMBER EXCEEDING TOLERANCE  MAXIMUM ERROR        IN ELEMENT
 VOLUMETRIC                          0                1.843E-08               3058
   INSTANCE: ELASTIC-PLASTIC-PLATE-1                                                         
 
	UNSYMMETRIC NEW DIRECT SPARSE SOLVER RUNNING ON
 	1 HOST x 1 MPI RANK PER HOST x 4 THREADS PER RANK
        NUMBER OF EQUATIONS:  45663
        NUMBER OF RHS:        1
        NUMBER OF FLOPS:      2.060e+09
        SOLVER ELAPSED TIME:  39ms

               CONVERGENCE CHECKS FOR EQUILIBRIUM ITERATION     2


 AVERAGE FORCE                      1.746E+04   TIME AVG. FORCE       9.877E+03
 LARGEST SCALED RESIDUAL FORCE       110.       AT NODE      11258   DOF  2
   INSTANCE: ELASTIC-PLASTIC-PLATE-1                                                         
  CORRESPONDING RESIDUAL FORCE       110.    
 LARGEST INCREMENT OF DISP.         6.000E-06   AT NODE          3   DOF  2
   INSTANCE: ELASTIC-PLASTIC-PLATE-1                                                         
 LARGEST CORRECTION TO DISP.        3.753E-08   AT NODE       6867   DOF  1
   INSTANCE: ELASTIC-PLASTIC-PLATE-1                                                         
          FORCE     EQUILIBRIUM NOT ACHIEVED WITHIN TOLERANCE.

 AVERAGE HEAT FLUX                  8.713E-13   TIME AVG. HEAT FLUX   1.000E-02
 LARGEST RESIDUAL HEAT FLUX         1.627E-11   AT NODE       2990   DOF 11
   INSTANCE: ELASTIC-PLASTIC-PLATE-1                                                         
 LARGEST INCREMENT OF TEMP.        -7.858E-02   AT NODE          6   DOF 11
   INSTANCE: ELASTIC-PLASTIC-PLATE-1                                                         
 LARGEST CORRECTION TO TEMP.        3.069E-02   AT NODE       2996   DOF 11
   INSTANCE: ELASTIC-PLASTIC-PLATE-1                                                         
          THERE IS ZERO HEAT FLUX EVERYWHERE
 

 ***WARNING: THERE IS ZERO HEAT FLUX EVERYWHERE IN THE MODEL BASED ON THE 
             DEFAULT CRITERION. PLEASE CHECK THE VALUE OF THE AVERAGE HEAT FLUX 
             DURING THE CURRENT ITERATION TO VERIFY THAT THE HEAT FLUX IS SMALL 
             ENOUGH TO BE TREATED AS ZERO. IF NOT, PLEASE USE THE SOLUTION 
             CONTROLS TO RESET THE CRITERION FOR ZERO HEAT FLUX.

 COMPATIBILITY ERRORS:
    TYPE                NUMBER EXCEEDING TOLERANCE  MAXIMUM ERROR        IN ELEMENT
 VOLUMETRIC                          0               -4.124E-10               1140
   INSTANCE: ELASTIC-PLASTIC-PLATE-1                                                         
 
	UNSYMMETRIC NEW DIRECT SPARSE SOLVER RUNNING ON
 	1 HOST x 1 MPI RANK PER HOST x 4 THREADS PER RANK
        NUMBER OF EQUATIONS:  45663
        NUMBER OF RHS:        1
        NUMBER OF FLOPS:      2.065e+09
        SOLVER ELAPSED TIME:  44ms

               CONVERGENCE CHECKS FOR EQUILIBRIUM ITERATION     3


 AVERAGE FORCE                      1.746E+04   TIME AVG. FORCE       9.877E+03
 LARGEST SCALED RESIDUAL FORCE       8.33       AT NODE      13503   DOF  2
   INSTANCE: ELASTIC-PLASTIC-PLATE-1                                                         
  CORRESPONDING RESIDUAL FORCE       8.33    
 LARGEST INCREMENT OF DISP.         6.000E-06   AT NODE          3   DOF  2
   INSTANCE: ELASTIC-PLASTIC-PLATE-1                                                         
 LARGEST CORRECTION TO DISP.       -6.903E-10   AT NODE      11518   DOF  2
   INSTANCE: ELASTIC-PLASTIC-PLATE-1                                                         
          THE FORCE     EQUILIBRIUM EQUATIONS HAVE CONVERGED

 AVERAGE HEAT FLUX                  8.691E-13   TIME AVG. HEAT FLUX   1.000E-02
 LARGEST RESIDUAL HEAT FLUX        -2.540E-12   AT NODE         56   DOF 11
   INSTANCE: ELASTIC-PLASTIC-PLATE-1                                                         
 LARGEST INCREMENT OF TEMP.        -7.509E-02   AT NODE          6   DOF 11
   INSTANCE: ELASTIC-PLASTIC-PLATE-1                                                         
 LARGEST CORRECTION TO TEMP.        5.243E-02   AT NODE       2692   DOF 11
   INSTANCE: ELASTIC-PLASTIC-PLATE-1                                                         
          THERE IS ZERO HEAT FLUX EVERYWHERE
 

 ***WARNING: THERE IS ZERO HEAT FLUX EVERYWHERE IN THE MODEL BASED ON THE 
             DEFAULT CRITERION. PLEASE CHECK THE VALUE OF THE AVERAGE HEAT FLUX 
             DURING THE CURRENT ITERATION TO VERIFY THAT THE HEAT FLUX IS SMALL 
             ENOUGH TO BE TREATED AS ZERO. IF NOT, PLEASE USE THE SOLUTION 
             CONTROLS TO RESET THE CRITERION FOR ZERO HEAT FLUX.

 COMPATIBILITY ERRORS:
    TYPE                NUMBER EXCEEDING TOLERANCE  MAXIMUM ERROR        IN ELEMENT
 VOLUMETRIC                          0               -1.783E-12               2794
   INSTANCE: ELASTIC-PLASTIC-PLATE-1                                                         

 ITERATION SUMMARY FOR THE INCREMENT:   3 TOTAL ITERATIONS, OF WHICH
   0 ARE SEVERE DISCONTINUITY ITERATIONS AND  3 ARE EQUILIBRIUM ITERATIONS.

 TIME INCREMENT COMPLETED  1.000E+03,  FRACTION OF STEP COMPLETED  9.000E-02
 STEP TIME COMPLETED       9.000E+03,  TOTAL TIME COMPLETED        9.000E+03


  INCREMENT    10 STARTS. ATTEMPT NUMBER  1, TIME INCREMENT  1.000E+03
 
	UNSYMMETRIC NEW DIRECT SPARSE SOLVER RUNNING ON
 	1 HOST x 1 MPI RANK PER HOST x 4 THREADS PER RANK
        NUMBER OF EQUATIONS:  45663
        NUMBER OF RHS:        1
        NUMBER OF FLOPS:      2.082e+09
        SOLVER ELAPSED TIME:  43ms

               CONVERGENCE CHECKS FOR EQUILIBRIUM ITERATION     1


 AVERAGE FORCE                      1.870E+04   TIME AVG. FORCE       1.076E+04
 LARGEST SCALED RESIDUAL FORCE     -5.982E+03   AT NODE      12826   DOF  2
   INSTANCE: ELASTIC-PLASTIC-PLATE-1                                                         
  CORRESPONDING RESIDUAL FORCE     -5.982E+03
 LARGEST INCREMENT OF DISP.         6.027E-06   AT NODE       8446   DOF  2
   INSTANCE: ELASTIC-PLASTIC-PLATE-1                                                         
 LARGEST CORRECTION TO DISP.        7.487E-07   AT NODE       4183   DOF  1
   INSTANCE: ELASTIC-PLASTIC-PLATE-1                                                         
          FORCE     EQUILIBRIUM NOT ACHIEVED WITHIN TOLERANCE.

 AVERAGE HEAT FLUX                  9.459E-13   TIME AVG. HEAT FLUX   1.000E-02
 LARGEST RESIDUAL HEAT FLUX        -8.394E-12   AT NODE       3037   DOF 11
   INSTANCE: ELASTIC-PLASTIC-PLATE-1                                                         
 LARGEST INCREMENT OF TEMP.        -5.732E-02   AT NODE          6   DOF 11
   INSTANCE: ELASTIC-PLASTIC-PLATE-1                                                         
 LARGEST CORRECTION TO TEMP.        2.175E-02   AT NODE       2705   DOF 11
   INSTANCE: ELASTIC-PLASTIC-PLATE-1                                                         
          THERE IS ZERO HEAT FLUX EVERYWHERE
 

 ***WARNING: THERE IS ZERO HEAT FLUX EVERYWHERE IN THE MODEL BASED ON THE 
             DEFAULT CRITERION. PLEASE CHECK THE VALUE OF THE AVERAGE HEAT FLUX 
             DURING THE CURRENT ITERATION TO VERIFY THAT THE HEAT FLUX IS SMALL 
             ENOUGH TO BE TREATED AS ZERO. IF NOT, PLEASE USE THE SOLUTION 
             CONTROLS TO RESET THE CRITERION FOR ZERO HEAT FLUX.

 COMPATIBILITY ERRORS:
    TYPE                NUMBER EXCEEDING TOLERANCE  MAXIMUM ERROR        IN ELEMENT
 VOLUMETRIC                          0                2.163E-08               2901
   INSTANCE: ELASTIC-PLASTIC-PLATE-1                                                         
 
	UNSYMMETRIC NEW DIRECT SPARSE SOLVER RUNNING ON
 	1 HOST x 1 MPI RANK PER HOST x 4 THREADS PER RANK
        NUMBER OF EQUATIONS:  45663
        NUMBER OF RHS:        1
        NUMBER OF FLOPS:      2.063e+09
        SOLVER ELAPSED TIME:  43ms

               CONVERGENCE CHECKS FOR EQUILIBRIUM ITERATION     2


 AVERAGE FORCE                      1.872E+04   TIME AVG. FORCE       1.076E+04
 LARGEST SCALED RESIDUAL FORCE       460.       AT NODE      12883   DOF  2
   INSTANCE: ELASTIC-PLASTIC-PLATE-1                                                         
  CORRESPONDING RESIDUAL FORCE       460.    
 LARGEST INCREMENT OF DISP.         6.000E-06   AT NODE          3   DOF  2
   INSTANCE: ELASTIC-PLASTIC-PLATE-1                                                         
 LARGEST CORRECTION TO DISP.        1.333E-07   AT NODE        109   DOF  1
   INSTANCE: ELASTIC-PLASTIC-PLATE-1                                                         
          FORCE     EQUILIBRIUM NOT ACHIEVED WITHIN TOLERANCE.

 AVERAGE HEAT FLUX                  9.334E-13   TIME AVG. HEAT FLUX   1.000E-02
 LARGEST RESIDUAL HEAT FLUX         1.435E-11   AT NODE       3153   DOF 11
   INSTANCE: ELASTIC-PLASTIC-PLATE-1                                                         
 LARGEST INCREMENT OF TEMP.        -7.240E-02   AT NODE          6   DOF 11
   INSTANCE: ELASTIC-PLASTIC-PLATE-1                                                         
 LARGEST CORRECTION TO TEMP.       -2.707E-02   AT NODE        259   DOF 11
   INSTANCE: ELASTIC-PLASTIC-PLATE-1                                                         
          THERE IS ZERO HEAT FLUX EVERYWHERE
 

 ***WARNING: THERE IS ZERO HEAT FLUX EVERYWHERE IN THE MODEL BASED ON THE 
             DEFAULT CRITERION. PLEASE CHECK THE VALUE OF THE AVERAGE HEAT FLUX 
             DURING THE CURRENT ITERATION TO VERIFY THAT THE HEAT FLUX IS SMALL 
             ENOUGH TO BE TREATED AS ZERO. IF NOT, PLEASE USE THE SOLUTION 
             CONTROLS TO RESET THE CRITERION FOR ZERO HEAT FLUX.

 COMPATIBILITY ERRORS:
    TYPE                NUMBER EXCEEDING TOLERANCE  MAXIMUM ERROR        IN ELEMENT
 VOLUMETRIC                          0               -4.856E-10               2100
   INSTANCE: ELASTIC-PLASTIC-PLATE-1                                                         
 
	UNSYMMETRIC NEW DIRECT SPARSE SOLVER RUNNING ON
 	1 HOST x 1 MPI RANK PER HOST x 4 THREADS PER RANK
        NUMBER OF EQUATIONS:  45663
        NUMBER OF RHS:        1
        NUMBER OF FLOPS:      2.059e+09
        SOLVER ELAPSED TIME:  41ms

               CONVERGENCE CHECKS FOR EQUILIBRIUM ITERATION     3


 AVERAGE FORCE                      1.872E+04   TIME AVG. FORCE       1.076E+04
 LARGEST SCALED RESIDUAL FORCE      -7.17       AT NODE      11892   DOF  2
   INSTANCE: ELASTIC-PLASTIC-PLATE-1                                                         
  CORRESPONDING RESIDUAL FORCE      -7.17    
 LARGEST INCREMENT OF DISP.         6.000E-06   AT NODE          3   DOF  2
   INSTANCE: ELASTIC-PLASTIC-PLATE-1                                                         
 LARGEST CORRECTION TO DISP.        1.223E-09   AT NODE      12883   DOF  2
   INSTANCE: ELASTIC-PLASTIC-PLATE-1                                                         
          THE FORCE     EQUILIBRIUM EQUATIONS HAVE CONVERGED

 AVERAGE HEAT FLUX                  9.310E-13   TIME AVG. HEAT FLUX   1.000E-02
 LARGEST RESIDUAL HEAT FLUX         7.553E-12   AT NODE       3426   DOF 11
   INSTANCE: ELASTIC-PLASTIC-PLATE-1                                                         
 LARGEST INCREMENT OF TEMP.        -6.582E-02   AT NODE          6   DOF 11
   INSTANCE: ELASTIC-PLASTIC-PLATE-1                                                         
 LARGEST CORRECTION TO TEMP.       -3.517E-02   AT NODE       2692   DOF 11
   INSTANCE: ELASTIC-PLASTIC-PLATE-1                                                         
          THERE IS ZERO HEAT FLUX EVERYWHERE
 

 ***WARNING: THERE IS ZERO HEAT FLUX EVERYWHERE IN THE MODEL BASED ON THE 
             DEFAULT CRITERION. PLEASE CHECK THE VALUE OF THE AVERAGE HEAT FLUX 
             DURING THE CURRENT ITERATION TO VERIFY THAT THE HEAT FLUX IS SMALL 
             ENOUGH TO BE TREATED AS ZERO. IF NOT, PLEASE USE THE SOLUTION 
             CONTROLS TO RESET THE CRITERION FOR ZERO HEAT FLUX.

 COMPATIBILITY ERRORS:
    TYPE                NUMBER EXCEEDING TOLERANCE  MAXIMUM ERROR        IN ELEMENT
 VOLUMETRIC                          0               -3.047E-12               4134
   INSTANCE: ELASTIC-PLASTIC-PLATE-1                                                         

 ITERATION SUMMARY FOR THE INCREMENT:   3 TOTAL ITERATIONS, OF WHICH
   0 ARE SEVERE DISCONTINUITY ITERATIONS AND  3 ARE EQUILIBRIUM ITERATIONS.

 TIME INCREMENT COMPLETED  1.000E+03,  FRACTION OF STEP COMPLETED  0.100    
 STEP TIME COMPLETED       1.000E+04,  TOTAL TIME COMPLETED        1.000E+04


  INCREMENT    11 STARTS. ATTEMPT NUMBER  1, TIME INCREMENT  1.000E+03
 
	UNSYMMETRIC NEW DIRECT SPARSE SOLVER RUNNING ON
 	1 HOST x 1 MPI RANK PER HOST x 4 THREADS PER RANK
        NUMBER OF EQUATIONS:  45663
        NUMBER OF RHS:        1
        NUMBER OF FLOPS:      2.085e+09
        SOLVER ELAPSED TIME:  40ms

               CONVERGENCE CHECKS FOR EQUILIBRIUM ITERATION     1


 AVERAGE FORCE                      1.977E+04   TIME AVG. FORCE       1.158E+04
 LARGEST SCALED RESIDUAL FORCE     -1.565E+03   AT NODE       9161   DOF  2
   INSTANCE: ELASTIC-PLASTIC-PLATE-1                                                         
  CORRESPONDING RESIDUAL FORCE     -1.565E+03
 LARGEST INCREMENT OF DISP.         6.000E-06   AT NODE          3   DOF  2
   INSTANCE: ELASTIC-PLASTIC-PLATE-1                                                         
 LARGEST CORRECTION TO DISP.       -6.604E-07   AT NODE         82   DOF  2
   INSTANCE: ELASTIC-PLASTIC-PLATE-1                                                         
          FORCE     EQUILIBRIUM NOT ACHIEVED WITHIN TOLERANCE.

 AVERAGE HEAT FLUX                  9.911E-13   TIME AVG. HEAT FLUX   1.000E-02
 LARGEST RESIDUAL HEAT FLUX         5.641E-12   AT NODE       3153   DOF 11
   INSTANCE: ELASTIC-PLASTIC-PLATE-1                                                         
 LARGEST INCREMENT OF TEMP.        -5.187E-02   AT NODE          6   DOF 11
   INSTANCE: ELASTIC-PLASTIC-PLATE-1                                                         
 LARGEST CORRECTION TO TEMP.        5.126E-02   AT NODE       2606   DOF 11
   INSTANCE: ELASTIC-PLASTIC-PLATE-1                                                         
          THERE IS ZERO HEAT FLUX EVERYWHERE
 

 ***WARNING: THERE IS ZERO HEAT FLUX EVERYWHERE IN THE MODEL BASED ON THE 
             DEFAULT CRITERION. PLEASE CHECK THE VALUE OF THE AVERAGE HEAT FLUX 
             DURING THE CURRENT ITERATION TO VERIFY THAT THE HEAT FLUX IS SMALL 
             ENOUGH TO BE TREATED AS ZERO. IF NOT, PLEASE USE THE SOLUTION 
             CONTROLS TO RESET THE CRITERION FOR ZERO HEAT FLUX.

 COMPATIBILITY ERRORS:
    TYPE                NUMBER EXCEEDING TOLERANCE  MAXIMUM ERROR        IN ELEMENT
 VOLUMETRIC                          0               -5.666E-09               3306
   INSTANCE: ELASTIC-PLASTIC-PLATE-1                                                         
 
	UNSYMMETRIC NEW DIRECT SPARSE SOLVER RUNNING ON
 	1 HOST x 1 MPI RANK PER HOST x 4 THREADS PER RANK
        NUMBER OF EQUATIONS:  45663
        NUMBER OF RHS:        1
        NUMBER OF FLOPS:      2.090e+09
        SOLVER ELAPSED TIME:  42ms

               CONVERGENCE CHECKS FOR EQUILIBRIUM ITERATION     2


 AVERAGE FORCE                      1.978E+04   TIME AVG. FORCE       1.158E+04
 LARGEST SCALED RESIDUAL FORCE      -108.       AT NODE      12241   DOF  2
   INSTANCE: ELASTIC-PLASTIC-PLATE-1                                                         
  CORRESPONDING RESIDUAL FORCE      -108.    
 LARGEST INCREMENT OF DISP.         6.000E-06   AT NODE          3   DOF  2
   INSTANCE: ELASTIC-PLASTIC-PLATE-1                                                         
 LARGEST CORRECTION TO DISP.        1.751E-08   AT NODE       3213   DOF  2
   INSTANCE: ELASTIC-PLASTIC-PLATE-1                                                         
          FORCE     EQUILIBRIUM NOT ACHIEVED WITHIN TOLERANCE.

 AVERAGE HEAT FLUX                  9.862E-13   TIME AVG. HEAT FLUX   1.000E-02
 LARGEST RESIDUAL HEAT FLUX         6.830E-12   AT NODE       3037   DOF 11
   INSTANCE: ELASTIC-PLASTIC-PLATE-1                                                         
 LARGEST INCREMENT OF TEMP.        -6.352E-02   AT NODE          6   DOF 11
   INSTANCE: ELASTIC-PLASTIC-PLATE-1                                                         
 LARGEST CORRECTION TO TEMP.       -1.421E-02   AT NODE        259   DOF 11
   INSTANCE: ELASTIC-PLASTIC-PLATE-1                                                         
          THERE IS ZERO HEAT FLUX EVERYWHERE
 

 ***WARNING: THERE IS ZERO HEAT FLUX EVERYWHERE IN THE MODEL BASED ON THE 
             DEFAULT CRITERION. PLEASE CHECK THE VALUE OF THE AVERAGE HEAT FLUX 
             DURING THE CURRENT ITERATION TO VERIFY THAT THE HEAT FLUX IS SMALL 
             ENOUGH TO BE TREATED AS ZERO. IF NOT, PLEASE USE THE SOLUTION 
             CONTROLS TO RESET THE CRITERION FOR ZERO HEAT FLUX.

 COMPATIBILITY ERRORS:
    TYPE                NUMBER EXCEEDING TOLERANCE  MAXIMUM ERROR        IN ELEMENT
 VOLUMETRIC                          0               -1.519E-10               3265
   INSTANCE: ELASTIC-PLASTIC-PLATE-1                                                         
 
	UNSYMMETRIC NEW DIRECT SPARSE SOLVER RUNNING ON
 	1 HOST x 1 MPI RANK PER HOST x 4 THREADS PER RANK
        NUMBER OF EQUATIONS:  45663
        NUMBER OF RHS:        1
        NUMBER OF FLOPS:      2.092e+09
        SOLVER ELAPSED TIME:  41ms

               CONVERGENCE CHECKS FOR EQUILIBRIUM ITERATION     3


 AVERAGE FORCE                      1.978E+04   TIME AVG. FORCE       1.158E+04
 LARGEST SCALED RESIDUAL FORCE      -4.35       AT NODE      11388   DOF  2
   INSTANCE: ELASTIC-PLASTIC-PLATE-1                                                         
  CORRESPONDING RESIDUAL FORCE      -4.35    
 LARGEST INCREMENT OF DISP.         6.000E-06   AT NODE          3   DOF  2
   INSTANCE: ELASTIC-PLASTIC-PLATE-1                                                         
 LARGEST CORRECTION TO DISP.       -6.312E-10   AT NODE      12241   DOF  2
   INSTANCE: ELASTIC-PLASTIC-PLATE-1                                                         
          THE FORCE     EQUILIBRIUM EQUATIONS HAVE CONVERGED

 AVERAGE HEAT FLUX                  9.831E-13   TIME AVG. HEAT FLUX   1.000E-02
 LARGEST RESIDUAL HEAT FLUX        -5.341E-12   AT NODE       3037   DOF 11
   INSTANCE: ELASTIC-PLASTIC-PLATE-1                                                         
 LARGEST INCREMENT OF TEMP.        -5.874E-02   AT NODE        263   DOF 11
   INSTANCE: ELASTIC-PLASTIC-PLATE-1                                                         
 LARGEST CORRECTION TO TEMP.        2.625E-02   AT NODE       3037   DOF 11
   INSTANCE: ELASTIC-PLASTIC-PLATE-1                                                         
          THERE IS ZERO HEAT FLUX EVERYWHERE
 

 ***WARNING: THERE IS ZERO HEAT FLUX EVERYWHERE IN THE MODEL BASED ON THE 
             DEFAULT CRITERION. PLEASE CHECK THE VALUE OF THE AVERAGE HEAT FLUX 
             DURING THE CURRENT ITERATION TO VERIFY THAT THE HEAT FLUX IS SMALL 
             ENOUGH TO BE TREATED AS ZERO. IF NOT, PLEASE USE THE SOLUTION 
             CONTROLS TO RESET THE CRITERION FOR ZERO HEAT FLUX.

 COMPATIBILITY ERRORS:
    TYPE                NUMBER EXCEEDING TOLERANCE  MAXIMUM ERROR        IN ELEMENT
 VOLUMETRIC                          0               -1.788E-12               3265
   INSTANCE: ELASTIC-PLASTIC-PLATE-1                                                         

 ITERATION SUMMARY FOR THE INCREMENT:   3 TOTAL ITERATIONS, OF WHICH
   0 ARE SEVERE DISCONTINUITY ITERATIONS AND  3 ARE EQUILIBRIUM ITERATIONS.

 TIME INCREMENT COMPLETED  1.000E+03,  FRACTION OF STEP COMPLETED  0.110    
 STEP TIME COMPLETED       1.100E+04,  TOTAL TIME COMPLETED        1.100E+04


  INCREMENT    12 STARTS. ATTEMPT NUMBER  1, TIME INCREMENT  1.000E+03
 
	UNSYMMETRIC NEW DIRECT SPARSE SOLVER RUNNING ON
 	1 HOST x 1 MPI RANK PER HOST x 4 THREADS PER RANK
        NUMBER OF EQUATIONS:  45663
        NUMBER OF RHS:        1
        NUMBER OF FLOPS:      2.096e+09
        SOLVER ELAPSED TIME:  40ms

               CONVERGENCE CHECKS FOR EQUILIBRIUM ITERATION     1


 AVERAGE FORCE                      2.067E+04   TIME AVG. FORCE       1.234E+04
 LARGEST SCALED RESIDUAL FORCE       541.       AT NODE       9526   DOF  2
   INSTANCE: ELASTIC-PLASTIC-PLATE-1                                                         
  CORRESPONDING RESIDUAL FORCE       541.    
 LARGEST INCREMENT OF DISP.         6.080E-06   AT NODE      11703   DOF  2
   INSTANCE: ELASTIC-PLASTIC-PLATE-1                                                         
 LARGEST CORRECTION TO DISP.        4.658E-07   AT NODE        117   DOF  1
   INSTANCE: ELASTIC-PLASTIC-PLATE-1                                                         
          FORCE     EQUILIBRIUM NOT ACHIEVED WITHIN TOLERANCE.

 AVERAGE HEAT FLUX                  1.049E-12   TIME AVG. HEAT FLUX   1.000E-02
 LARGEST RESIDUAL HEAT FLUX         6.190E-12   AT NODE       2705   DOF 11
   INSTANCE: ELASTIC-PLASTIC-PLATE-1                                                         
 LARGEST INCREMENT OF TEMP.        -4.618E-02   AT NODE        263   DOF 11
   INSTANCE: ELASTIC-PLASTIC-PLATE-1                                                         
 LARGEST CORRECTION TO TEMP.       -3.646E-02   AT NODE       3037   DOF 11
   INSTANCE: ELASTIC-PLASTIC-PLATE-1                                                         
          THERE IS ZERO HEAT FLUX EVERYWHERE
 

 ***WARNING: THERE IS ZERO HEAT FLUX EVERYWHERE IN THE MODEL BASED ON THE 
             DEFAULT CRITERION. PLEASE CHECK THE VALUE OF THE AVERAGE HEAT FLUX 
             DURING THE CURRENT ITERATION TO VERIFY THAT THE HEAT FLUX IS SMALL 
             ENOUGH TO BE TREATED AS ZERO. IF NOT, PLEASE USE THE SOLUTION 
             CONTROLS TO RESET THE CRITERION FOR ZERO HEAT FLUX.

 COMPATIBILITY ERRORS:
    TYPE                NUMBER EXCEEDING TOLERANCE  MAXIMUM ERROR        IN ELEMENT
 VOLUMETRIC                          0               -9.811E-09               3306
   INSTANCE: ELASTIC-PLASTIC-PLATE-1                                                         
 
	UNSYMMETRIC NEW DIRECT SPARSE SOLVER RUNNING ON
 	1 HOST x 1 MPI RANK PER HOST x 4 THREADS PER RANK
        NUMBER OF EQUATIONS:  45663
        NUMBER OF RHS:        1
        NUMBER OF FLOPS:      2.101e+09
        SOLVER ELAPSED TIME:  39ms

               CONVERGENCE CHECKS FOR EQUILIBRIUM ITERATION     2


 AVERAGE FORCE                      2.067E+04   TIME AVG. FORCE       1.234E+04
 LARGEST SCALED RESIDUAL FORCE       37.0       AT NODE      11388   DOF  2
   INSTANCE: ELASTIC-PLASTIC-PLATE-1                                                         
  CORRESPONDING RESIDUAL FORCE       37.0    
 LARGEST INCREMENT OF DISP.         6.080E-06   AT NODE      11703   DOF  2
   INSTANCE: ELASTIC-PLASTIC-PLATE-1                                                         
 LARGEST CORRECTION TO DISP.       -7.654E-09   AT NODE       4235   DOF  2
   INSTANCE: ELASTIC-PLASTIC-PLATE-1                                                         
          THE FORCE     EQUILIBRIUM EQUATIONS HAVE CONVERGED

 AVERAGE HEAT FLUX                  1.040E-12   TIME AVG. HEAT FLUX   1.000E-02
 LARGEST RESIDUAL HEAT FLUX        -7.789E-12   AT NODE       3037   DOF 11
   INSTANCE: ELASTIC-PLASTIC-PLATE-1                                                         
 LARGEST INCREMENT OF TEMP.        -5.542E-02   AT NODE        263   DOF 11
   INSTANCE: ELASTIC-PLASTIC-PLATE-1                                                         
 LARGEST CORRECTION TO TEMP.        1.887E-02   AT NODE       2705   DOF 11
   INSTANCE: ELASTIC-PLASTIC-PLATE-1                                                         
          THERE IS ZERO HEAT FLUX EVERYWHERE
 

 ***WARNING: THERE IS ZERO HEAT FLUX EVERYWHERE IN THE MODEL BASED ON THE 
             DEFAULT CRITERION. PLEASE CHECK THE VALUE OF THE AVERAGE HEAT FLUX 
             DURING THE CURRENT ITERATION TO VERIFY THAT THE HEAT FLUX IS SMALL 
             ENOUGH TO BE TREATED AS ZERO. IF NOT, PLEASE USE THE SOLUTION 
             CONTROLS TO RESET THE CRITERION FOR ZERO HEAT FLUX.

 COMPATIBILITY ERRORS:
    TYPE                NUMBER EXCEEDING TOLERANCE  MAXIMUM ERROR        IN ELEMENT
 VOLUMETRIC                          0                6.695E-11               3217
   INSTANCE: ELASTIC-PLASTIC-PLATE-1                                                         

 ITERATION SUMMARY FOR THE INCREMENT:   2 TOTAL ITERATIONS, OF WHICH
   0 ARE SEVERE DISCONTINUITY ITERATIONS AND  2 ARE EQUILIBRIUM ITERATIONS.

 TIME INCREMENT COMPLETED  1.000E+03,  FRACTION OF STEP COMPLETED  0.120    
 STEP TIME COMPLETED       1.200E+04,  TOTAL TIME COMPLETED        1.200E+04


  INCREMENT    13 STARTS. ATTEMPT NUMBER  1, TIME INCREMENT  1.000E+03
 
	UNSYMMETRIC NEW DIRECT SPARSE SOLVER RUNNING ON
 	1 HOST x 1 MPI RANK PER HOST x 4 THREADS PER RANK
        NUMBER OF EQUATIONS:  45663
        NUMBER OF RHS:        1
        NUMBER OF FLOPS:      2.107e+09
        SOLVER ELAPSED TIME:  45ms

               CONVERGENCE CHECKS FOR EQUILIBRIUM ITERATION     1


 AVERAGE FORCE                      2.145E+04   TIME AVG. FORCE       1.304E+04
 LARGEST SCALED RESIDUAL FORCE      -447.       AT NODE      12122   DOF  2
   INSTANCE: ELASTIC-PLASTIC-PLATE-1                                                         
  CORRESPONDING RESIDUAL FORCE      -447.    
 LARGEST INCREMENT OF DISP.         6.166E-06   AT NODE        206   DOF  2
   INSTANCE: ELASTIC-PLASTIC-PLATE-1                                                         
 LARGEST CORRECTION TO DISP.       -2.313E-07   AT NODE      13714   DOF  2
   INSTANCE: ELASTIC-PLASTIC-PLATE-1                                                         
          FORCE     EQUILIBRIUM NOT ACHIEVED WITHIN TOLERANCE.

 AVERAGE HEAT FLUX                  1.102E-12   TIME AVG. HEAT FLUX   1.000E-02
 LARGEST RESIDUAL HEAT FLUX        -4.342E-12   AT NODE       2817   DOF 11
   INSTANCE: ELASTIC-PLASTIC-PLATE-1                                                         
 LARGEST INCREMENT OF TEMP.        -5.184E-02   AT NODE       2817   DOF 11
   INSTANCE: ELASTIC-PLASTIC-PLATE-1                                                         
 LARGEST CORRECTION TO TEMP.        5.236E-02   AT NODE       3069   DOF 11
   INSTANCE: ELASTIC-PLASTIC-PLATE-1                                                         
          THERE IS ZERO HEAT FLUX EVERYWHERE
 

 ***WARNING: THERE IS ZERO HEAT FLUX EVERYWHERE IN THE MODEL BASED ON THE 
             DEFAULT CRITERION. PLEASE CHECK THE VALUE OF THE AVERAGE HEAT FLUX 
             DURING THE CURRENT ITERATION TO VERIFY THAT THE HEAT FLUX IS SMALL 
             ENOUGH TO BE TREATED AS ZERO. IF NOT, PLEASE USE THE SOLUTION 
             CONTROLS TO RESET THE CRITERION FOR ZERO HEAT FLUX.

 COMPATIBILITY ERRORS:
    TYPE                NUMBER EXCEEDING TOLERANCE  MAXIMUM ERROR        IN ELEMENT
 VOLUMETRIC                          0               -3.274E-09               3306
   INSTANCE: ELASTIC-PLASTIC-PLATE-1                                                         
 
	UNSYMMETRIC NEW DIRECT SPARSE SOLVER RUNNING ON
 	1 HOST x 1 MPI RANK PER HOST x 4 THREADS PER RANK
        NUMBER OF EQUATIONS:  45663
        NUMBER OF RHS:        1
        NUMBER OF FLOPS:      2.110e+09
        SOLVER ELAPSED TIME:  42ms

               CONVERGENCE CHECKS FOR EQUILIBRIUM ITERATION     2


 AVERAGE FORCE                      2.145E+04   TIME AVG. FORCE       1.304E+04
 LARGEST SCALED RESIDUAL FORCE       73.1       AT NODE      11556   DOF  1
   INSTANCE: ELASTIC-PLASTIC-PLATE-1                                                         
  CORRESPONDING RESIDUAL FORCE       73.1    
 LARGEST INCREMENT OF DISP.         6.166E-06   AT NODE        206   DOF  2
   INSTANCE: ELASTIC-PLASTIC-PLATE-1                                                         
 LARGEST CORRECTION TO DISP.       -4.961E-09   AT NODE       4428   DOF  2
   INSTANCE: ELASTIC-PLASTIC-PLATE-1                                                         
          FORCE     EQUILIBRIUM NOT ACHIEVED WITHIN TOLERANCE.

 AVERAGE HEAT FLUX                  1.092E-12   TIME AVG. HEAT FLUX   1.000E-02
 LARGEST RESIDUAL HEAT FLUX         7.273E-12   AT NODE       2607   DOF 11
   INSTANCE: ELASTIC-PLASTIC-PLATE-1                                                         
 LARGEST INCREMENT OF TEMP.        -6.563E-02   AT NODE       2817   DOF 11
   INSTANCE: ELASTIC-PLASTIC-PLATE-1                                                         
 LARGEST CORRECTION TO TEMP.       -1.380E-02   AT NODE       2817   DOF 11
   INSTANCE: ELASTIC-PLASTIC-PLATE-1                                                         
          THERE IS ZERO HEAT FLUX EVERYWHERE
 

 ***WARNING: THERE IS ZERO HEAT FLUX EVERYWHERE IN THE MODEL BASED ON THE 
             DEFAULT CRITERION. PLEASE CHECK THE VALUE OF THE AVERAGE HEAT FLUX 
             DURING THE CURRENT ITERATION TO VERIFY THAT THE HEAT FLUX IS SMALL 
             ENOUGH TO BE TREATED AS ZERO. IF NOT, PLEASE USE THE SOLUTION 
             CONTROLS TO RESET THE CRITERION FOR ZERO HEAT FLUX.

 COMPATIBILITY ERRORS:
    TYPE                NUMBER EXCEEDING TOLERANCE  MAXIMUM ERROR        IN ELEMENT
 VOLUMETRIC                          0               -6.731E-11               3217
   INSTANCE: ELASTIC-PLASTIC-PLATE-1                                                         
 
	UNSYMMETRIC NEW DIRECT SPARSE SOLVER RUNNING ON
 	1 HOST x 1 MPI RANK PER HOST x 4 THREADS PER RANK
        NUMBER OF EQUATIONS:  45663
        NUMBER OF RHS:        1
        NUMBER OF FLOPS:      2.110e+09
        SOLVER ELAPSED TIME:  42ms

               CONVERGENCE CHECKS FOR EQUILIBRIUM ITERATION     3


 AVERAGE FORCE                      2.145E+04   TIME AVG. FORCE       1.304E+04
 LARGEST SCALED RESIDUAL FORCE     -0.173       AT NODE       7073   DOF  2
   INSTANCE: ELASTIC-PLASTIC-PLATE-1                                                         
  CORRESPONDING RESIDUAL FORCE     -0.173    
 LARGEST INCREMENT OF DISP.         6.166E-06   AT NODE        206   DOF  2
   INSTANCE: ELASTIC-PLASTIC-PLATE-1                                                         
 LARGEST CORRECTION TO DISP.       -3.667E-10   AT NODE      12122   DOF  2
[...]
 
	UNSYMMETRIC NEW DIRECT SPARSE SOLVER RUNNING ON
 	1 HOST x 1 MPI RANK PER HOST x 4 THREADS PER RANK
        NUMBER OF EQUATIONS:  45663
        NUMBER OF RHS:        1
        NUMBER OF FLOPS:      1.966e+09
        SOLVER ELAPSED TIME:  40ms

               CONVERGENCE CHECKS FOR EQUILIBRIUM ITERATION     1


 AVERAGE FORCE                      3.917E+04   TIME AVG. FORCE       3.016E+04
 LARGEST SCALED RESIDUAL FORCE       4.51       AT NODE       6900   DOF  2
   INSTANCE: ELASTIC-PLASTIC-PLATE-1                                                         
  CORRESPONDING RESIDUAL FORCE       4.51    
 LARGEST INCREMENT OF DISP.         6.237E-06   AT NODE          5   DOF  2
   INSTANCE: ELASTIC-PLASTIC-PLATE-1                                                         
 LARGEST CORRECTION TO DISP.        5.323E-09   AT NODE      11882   DOF  1
   INSTANCE: ELASTIC-PLASTIC-PLATE-1                                                         
          THE FORCE     EQUILIBRIUM EQUATIONS HAVE CONVERGED

 AVERAGE HEAT FLUX                  2.287E-12   TIME AVG. HEAT FLUX   1.000E-02
 LARGEST RESIDUAL HEAT FLUX         1.230E-12   AT NODE       2918   DOF 11
   INSTANCE: ELASTIC-PLASTIC-PLATE-1                                                         
 LARGEST INCREMENT OF TEMP.        -3.305E-02   AT NODE        247   DOF 11
   INSTANCE: ELASTIC-PLASTIC-PLATE-1                                                         
 LARGEST CORRECTION TO TEMP.       -2.916E-03   AT NODE       3148   DOF 11
   INSTANCE: ELASTIC-PLASTIC-PLATE-1                                                         
          THERE IS ZERO HEAT FLUX EVERYWHERE
 

 ***WARNING: THERE IS ZERO HEAT FLUX EVERYWHERE IN THE MODEL BASED ON THE 
             DEFAULT CRITERION. PLEASE CHECK THE VALUE OF THE AVERAGE HEAT FLUX 
             DURING THE CURRENT ITERATION TO VERIFY THAT THE HEAT FLUX IS SMALL 
             ENOUGH TO BE TREATED AS ZERO. IF NOT, PLEASE USE THE SOLUTION 
             CONTROLS TO RESET THE CRITERION FOR ZERO HEAT FLUX.

 COMPATIBILITY ERRORS:
    TYPE                NUMBER EXCEEDING TOLERANCE  MAXIMUM ERROR        IN ELEMENT
 VOLUMETRIC                          0               -2.860E-12               3373
   INSTANCE: ELASTIC-PLASTIC-PLATE-1                                                         

 ITERATION SUMMARY FOR THE INCREMENT:   1 TOTAL ITERATIONS, OF WHICH
   0 ARE SEVERE DISCONTINUITY ITERATIONS AND  1 ARE EQUILIBRIUM ITERATIONS.

 TIME INCREMENT COMPLETED  1.000E+03,  FRACTION OF STEP COMPLETED  0.940    
 STEP TIME COMPLETED       9.400E+04,  TOTAL TIME COMPLETED        9.400E+04


  INCREMENT    95 STARTS. ATTEMPT NUMBER  1, TIME INCREMENT  1.000E+03
 
	UNSYMMETRIC NEW DIRECT SPARSE SOLVER RUNNING ON
 	1 HOST x 1 MPI RANK PER HOST x 4 THREADS PER RANK
        NUMBER OF EQUATIONS:  45663
        NUMBER OF RHS:        1
        NUMBER OF FLOPS:      1.960e+09
        SOLVER ELAPSED TIME:  40ms

               CONVERGENCE CHECKS FOR EQUILIBRIUM ITERATION     1


 AVERAGE FORCE                      3.928E+04   TIME AVG. FORCE       3.025E+04
 LARGEST SCALED RESIDUAL FORCE       7.83       AT NODE       7745   DOF  2
   INSTANCE: ELASTIC-PLASTIC-PLATE-1                                                         
  CORRESPONDING RESIDUAL FORCE       7.83    
 LARGEST INCREMENT OF DISP.         6.236E-06   AT NODE          5   DOF  2
   INSTANCE: ELASTIC-PLASTIC-PLATE-1                                                         
 LARGEST CORRECTION TO DISP.        5.169E-09   AT NODE      11882   DOF  1
   INSTANCE: ELASTIC-PLASTIC-PLATE-1                                                         
          THE FORCE     EQUILIBRIUM EQUATIONS HAVE CONVERGED

 AVERAGE HEAT FLUX                  2.293E-12   TIME AVG. HEAT FLUX   1.000E-02
 LARGEST RESIDUAL HEAT FLUX         1.230E-12   AT NODE       2918   DOF 11
   INSTANCE: ELASTIC-PLASTIC-PLATE-1                                                         
 LARGEST INCREMENT OF TEMP.        -3.291E-02   AT NODE        247   DOF 11
   INSTANCE: ELASTIC-PLASTIC-PLATE-1                                                         
 LARGEST CORRECTION TO TEMP.        3.650E-03   AT NODE       3214   DOF 11
   INSTANCE: ELASTIC-PLASTIC-PLATE-1                                                         
          THERE IS ZERO HEAT FLUX EVERYWHERE
 

 ***WARNING: THERE IS ZERO HEAT FLUX EVERYWHERE IN THE MODEL BASED ON THE 
             DEFAULT CRITERION. PLEASE CHECK THE VALUE OF THE AVERAGE HEAT FLUX 
             DURING THE CURRENT ITERATION TO VERIFY THAT THE HEAT FLUX IS SMALL 
             ENOUGH TO BE TREATED AS ZERO. IF NOT, PLEASE USE THE SOLUTION 
             CONTROLS TO RESET THE CRITERION FOR ZERO HEAT FLUX.

 COMPATIBILITY ERRORS:
    TYPE                NUMBER EXCEEDING TOLERANCE  MAXIMUM ERROR        IN ELEMENT
 VOLUMETRIC                          0               -3.775E-12               2682
   INSTANCE: ELASTIC-PLASTIC-PLATE-1                                                         

 ITERATION SUMMARY FOR THE INCREMENT:   1 TOTAL ITERATIONS, OF WHICH
   0 ARE SEVERE DISCONTINUITY ITERATIONS AND  1 ARE EQUILIBRIUM ITERATIONS.

 TIME INCREMENT COMPLETED  1.000E+03,  FRACTION OF STEP COMPLETED  0.950    
 STEP TIME COMPLETED       9.500E+04,  TOTAL TIME COMPLETED        9.500E+04


  INCREMENT    96 STARTS. ATTEMPT NUMBER  1, TIME INCREMENT  1.000E+03
 
	UNSYMMETRIC NEW DIRECT SPARSE SOLVER RUNNING ON
 	1 HOST x 1 MPI RANK PER HOST x 4 THREADS PER RANK
        NUMBER OF EQUATIONS:  45663
        NUMBER OF RHS:        1
        NUMBER OF FLOPS:      1.963e+09
        SOLVER ELAPSED TIME:  38ms

               CONVERGENCE CHECKS FOR EQUILIBRIUM ITERATION     1


 AVERAGE FORCE                      3.939E+04   TIME AVG. FORCE       3.035E+04
 LARGEST SCALED RESIDUAL FORCE      -17.7       AT NODE       8351   DOF  2
   INSTANCE: ELASTIC-PLASTIC-PLATE-1                                                         
  CORRESPONDING RESIDUAL FORCE      -17.7    
 LARGEST INCREMENT OF DISP.         6.235E-06   AT NODE          5   DOF  2
   INSTANCE: ELASTIC-PLASTIC-PLATE-1                                                         
 LARGEST CORRECTION TO DISP.        5.351E-09   AT NODE        264   DOF  1
   INSTANCE: ELASTIC-PLASTIC-PLATE-1                                                         
          THE FORCE     EQUILIBRIUM EQUATIONS HAVE CONVERGED

 AVERAGE HEAT FLUX                  2.300E-12   TIME AVG. HEAT FLUX   1.000E-02
 LARGEST RESIDUAL HEAT FLUX         1.284E-12   AT NODE       4402   DOF 11
   INSTANCE: ELASTIC-PLASTIC-PLATE-1                                                         
 LARGEST INCREMENT OF TEMP.        -3.274E-02   AT NODE        247   DOF 11
   INSTANCE: ELASTIC-PLASTIC-PLATE-1                                                         
 LARGEST CORRECTION TO TEMP.        4.539E-03   AT NODE       4402   DOF 11
   INSTANCE: ELASTIC-PLASTIC-PLATE-1                                                         
          THERE IS ZERO HEAT FLUX EVERYWHERE
 

 ***WARNING: THERE IS ZERO HEAT FLUX EVERYWHERE IN THE MODEL BASED ON THE 
             DEFAULT CRITERION. PLEASE CHECK THE VALUE OF THE AVERAGE HEAT FLUX 
             DURING THE CURRENT ITERATION TO VERIFY THAT THE HEAT FLUX IS SMALL 
             ENOUGH TO BE TREATED AS ZERO. IF NOT, PLEASE USE THE SOLUTION 
             CONTROLS TO RESET THE CRITERION FOR ZERO HEAT FLUX.

 COMPATIBILITY ERRORS:
    TYPE                NUMBER EXCEEDING TOLERANCE  MAXIMUM ERROR        IN ELEMENT
 VOLUMETRIC                          0               -5.464E-12               2052
   INSTANCE: ELASTIC-PLASTIC-PLATE-1                                                         

 ITERATION SUMMARY FOR THE INCREMENT:   1 TOTAL ITERATIONS, OF WHICH
   0 ARE SEVERE DISCONTINUITY ITERATIONS AND  1 ARE EQUILIBRIUM ITERATIONS.

 TIME INCREMENT COMPLETED  1.000E+03,  FRACTION OF STEP COMPLETED  0.960    
 STEP TIME COMPLETED       9.600E+04,  TOTAL TIME COMPLETED        9.600E+04


  INCREMENT    97 STARTS. ATTEMPT NUMBER  1, TIME INCREMENT  1.000E+03
 
	UNSYMMETRIC NEW DIRECT SPARSE SOLVER RUNNING ON
 	1 HOST x 1 MPI RANK PER HOST x 4 THREADS PER RANK
        NUMBER OF EQUATIONS:  45663
        NUMBER OF RHS:        1
        NUMBER OF FLOPS:      1.963e+09
        SOLVER ELAPSED TIME:  45ms

               CONVERGENCE CHECKS FOR EQUILIBRIUM ITERATION     1


 AVERAGE FORCE                      3.949E+04   TIME AVG. FORCE       3.044E+04
 LARGEST SCALED RESIDUAL FORCE       18.5       AT NODE       8348   DOF  2
   INSTANCE: ELASTIC-PLASTIC-PLATE-1                                                         
  CORRESPONDING RESIDUAL FORCE       18.5    
 LARGEST INCREMENT OF DISP.         6.233E-06   AT NODE          5   DOF  2
   INSTANCE: ELASTIC-PLASTIC-PLATE-1                                                         
 LARGEST CORRECTION TO DISP.        5.254E-09   AT NODE        264   DOF  1
   INSTANCE: ELASTIC-PLASTIC-PLATE-1                                                         
          THE FORCE     EQUILIBRIUM EQUATIONS HAVE CONVERGED

 AVERAGE HEAT FLUX                  2.306E-12   TIME AVG. HEAT FLUX   1.000E-02
 LARGEST RESIDUAL HEAT FLUX         1.190E-12   AT NODE       2918   DOF 11
   INSTANCE: ELASTIC-PLASTIC-PLATE-1                                                         
 LARGEST INCREMENT OF TEMP.        -3.255E-02   AT NODE        246   DOF 11
   INSTANCE: ELASTIC-PLASTIC-PLATE-1                                                         
 LARGEST CORRECTION TO TEMP.       -2.595E-03   AT NODE       3713   DOF 11
   INSTANCE: ELASTIC-PLASTIC-PLATE-1                                                         
          THERE IS ZERO HEAT FLUX EVERYWHERE
 

 ***WARNING: THERE IS ZERO HEAT FLUX EVERYWHERE IN THE MODEL BASED ON THE 
             DEFAULT CRITERION. PLEASE CHECK THE VALUE OF THE AVERAGE HEAT FLUX 
             DURING THE CURRENT ITERATION TO VERIFY THAT THE HEAT FLUX IS SMALL 
             ENOUGH TO BE TREATED AS ZERO. IF NOT, PLEASE USE THE SOLUTION 
             CONTROLS TO RESET THE CRITERION FOR ZERO HEAT FLUX.

 COMPATIBILITY ERRORS:
    TYPE                NUMBER EXCEEDING TOLERANCE  MAXIMUM ERROR        IN ELEMENT
 VOLUMETRIC                          0               -7.518E-12               1872
   INSTANCE: ELASTIC-PLASTIC-PLATE-1                                                         

 ITERATION SUMMARY FOR THE INCREMENT:   1 TOTAL ITERATIONS, OF WHICH
   0 ARE SEVERE DISCONTINUITY ITERATIONS AND  1 ARE EQUILIBRIUM ITERATIONS.

 TIME INCREMENT COMPLETED  1.000E+03,  FRACTION OF STEP COMPLETED  0.970    
 STEP TIME COMPLETED       9.700E+04,  TOTAL TIME COMPLETED        9.700E+04


  INCREMENT    98 STARTS. ATTEMPT NUMBER  1, TIME INCREMENT  1.000E+03
 
	UNSYMMETRIC NEW DIRECT SPARSE SOLVER RUNNING ON
 	1 HOST x 1 MPI RANK PER HOST x 4 THREADS PER RANK
        NUMBER OF EQUATIONS:  45663
        NUMBER OF RHS:        1
        NUMBER OF FLOPS:      1.967e+09
        SOLVER ELAPSED TIME:  38ms

               CONVERGENCE CHECKS FOR EQUILIBRIUM ITERATION     1


 AVERAGE FORCE                      3.960E+04   TIME AVG. FORCE       3.053E+04
 LARGEST SCALED RESIDUAL FORCE      -8.56       AT NODE      10271   DOF  1
   INSTANCE: ELASTIC-PLASTIC-PLATE-1                                                         
  CORRESPONDING RESIDUAL FORCE      -8.56    
 LARGEST INCREMENT OF DISP.         6.232E-06   AT NODE          5   DOF  2
   INSTANCE: ELASTIC-PLASTIC-PLATE-1                                                         
 LARGEST CORRECTION TO DISP.        5.011E-09   AT NODE      11882   DOF  1
   INSTANCE: ELASTIC-PLASTIC-PLATE-1                                                         
          THE FORCE     EQUILIBRIUM EQUATIONS HAVE CONVERGED

 AVERAGE HEAT FLUX                  2.312E-12   TIME AVG. HEAT FLUX   1.000E-02
 LARGEST RESIDUAL HEAT FLUX         1.245E-12   AT NODE       2670   DOF 11
   INSTANCE: ELASTIC-PLASTIC-PLATE-1                                                         
 LARGEST INCREMENT OF TEMP.        -3.265E-02   AT NODE        246   DOF 11
   INSTANCE: ELASTIC-PLASTIC-PLATE-1                                                         
 LARGEST CORRECTION TO TEMP.       -3.614E-03   AT NODE       4402   DOF 11
   INSTANCE: ELASTIC-PLASTIC-PLATE-1                                                         
          THERE IS ZERO HEAT FLUX EVERYWHERE
 

 ***WARNING: THERE IS ZERO HEAT FLUX EVERYWHERE IN THE MODEL BASED ON THE 
             DEFAULT CRITERION. PLEASE CHECK THE VALUE OF THE AVERAGE HEAT FLUX 
             DURING THE CURRENT ITERATION TO VERIFY THAT THE HEAT FLUX IS SMALL 
             ENOUGH TO BE TREATED AS ZERO. IF NOT, PLEASE USE THE SOLUTION 
             CONTROLS TO RESET THE CRITERION FOR ZERO HEAT FLUX.

 COMPATIBILITY ERRORS:
    TYPE                NUMBER EXCEEDING TOLERANCE  MAXIMUM ERROR        IN ELEMENT
 VOLUMETRIC                          0               -6.402E-12               1812
   INSTANCE: ELASTIC-PLASTIC-PLATE-1                                                         

 ITERATION SUMMARY FOR THE INCREMENT:   1 TOTAL ITERATIONS, OF WHICH
   0 ARE SEVERE DISCONTINUITY ITERATIONS AND  1 ARE EQUILIBRIUM ITERATIONS.

 TIME INCREMENT COMPLETED  1.000E+03,  FRACTION OF STEP COMPLETED  0.980    
 STEP TIME COMPLETED       9.800E+04,  TOTAL TIME COMPLETED        9.800E+04


  INCREMENT    99 STARTS. ATTEMPT NUMBER  1, TIME INCREMENT  1.000E+03
 
	UNSYMMETRIC NEW DIRECT SPARSE SOLVER RUNNING ON
 	1 HOST x 1 MPI RANK PER HOST x 4 THREADS PER RANK
        NUMBER OF EQUATIONS:  45663
        NUMBER OF RHS:        1
        NUMBER OF FLOPS:      1.963e+09
        SOLVER ELAPSED TIME:  43ms

               CONVERGENCE CHECKS FOR EQUILIBRIUM ITERATION     1


 AVERAGE FORCE                      3.970E+04   TIME AVG. FORCE       3.063E+04
 LARGEST SCALED RESIDUAL FORCE       6.59       AT NODE      13277   DOF  2
   INSTANCE: ELASTIC-PLASTIC-PLATE-1                                                         
  CORRESPONDING RESIDUAL FORCE       6.59    
 LARGEST INCREMENT OF DISP.         6.231E-06   AT NODE          5   DOF  2
   INSTANCE: ELASTIC-PLASTIC-PLATE-1                                                         
 LARGEST CORRECTION TO DISP.        5.173E-09   AT NODE      11882   DOF  1
   INSTANCE: ELASTIC-PLASTIC-PLATE-1                                                         
          THE FORCE     EQUILIBRIUM EQUATIONS HAVE CONVERGED

 AVERAGE HEAT FLUX                  2.317E-12   TIME AVG. HEAT FLUX   1.000E-02
 LARGEST RESIDUAL HEAT FLUX         1.292E-12   AT NODE       2670   DOF 11
   INSTANCE: ELASTIC-PLASTIC-PLATE-1                                                         
 LARGEST INCREMENT OF TEMP.        -3.270E-02   AT NODE        246   DOF 11
   INSTANCE: ELASTIC-PLASTIC-PLATE-1                                                         
 LARGEST CORRECTION TO TEMP.        4.220E-03   AT NODE        242   DOF 11
   INSTANCE: ELASTIC-PLASTIC-PLATE-1                                                         
          THERE IS ZERO HEAT FLUX EVERYWHERE
 

 ***WARNING: THERE IS ZERO HEAT FLUX EVERYWHERE IN THE MODEL BASED ON THE 
             DEFAULT CRITERION. PLEASE CHECK THE VALUE OF THE AVERAGE HEAT FLUX 
             DURING THE CURRENT ITERATION TO VERIFY THAT THE HEAT FLUX IS SMALL 
             ENOUGH TO BE TREATED AS ZERO. IF NOT, PLEASE USE THE SOLUTION 
             CONTROLS TO RESET THE CRITERION FOR ZERO HEAT FLUX.

 COMPATIBILITY ERRORS:
    TYPE                NUMBER EXCEEDING TOLERANCE  MAXIMUM ERROR        IN ELEMENT
 VOLUMETRIC                          0               -4.358E-12               1752
   INSTANCE: ELASTIC-PLASTIC-PLATE-1                                                         

 ITERATION SUMMARY FOR THE INCREMENT:   1 TOTAL ITERATIONS, OF WHICH
   0 ARE SEVERE DISCONTINUITY ITERATIONS AND  1 ARE EQUILIBRIUM ITERATIONS.

 TIME INCREMENT COMPLETED  1.000E+03,  FRACTION OF STEP COMPLETED  0.990    
 STEP TIME COMPLETED       9.900E+04,  TOTAL TIME COMPLETED        9.900E+04


  INCREMENT   100 STARTS. ATTEMPT NUMBER  1, TIME INCREMENT  1.000E+03
 
	UNSYMMETRIC NEW DIRECT SPARSE SOLVER RUNNING ON
 	1 HOST x 1 MPI RANK PER HOST x 4 THREADS PER RANK
        NUMBER OF EQUATIONS:  45663
        NUMBER OF RHS:        1
        NUMBER OF FLOPS:      1.966e+09
        SOLVER ELAPSED TIME:  42ms

               CONVERGENCE CHECKS FOR EQUILIBRIUM ITERATION     1


 AVERAGE FORCE                      3.981E+04   TIME AVG. FORCE       3.072E+04
 LARGEST SCALED RESIDUAL FORCE      -1.57       AT NODE       8994   DOF  2
   INSTANCE: ELASTIC-PLASTIC-PLATE-1                                                         
  CORRESPONDING RESIDUAL FORCE      -1.57    
 LARGEST INCREMENT OF DISP.         6.230E-06   AT NODE          5   DOF  2
   INSTANCE: ELASTIC-PLASTIC-PLATE-1                                                         
 LARGEST CORRECTION TO DISP.        5.095E-09   AT NODE      11882   DOF  1
   INSTANCE: ELASTIC-PLASTIC-PLATE-1                                                         
          THE FORCE     EQUILIBRIUM EQUATIONS HAVE CONVERGED

 AVERAGE HEAT FLUX                  2.323E-12   TIME AVG. HEAT FLUX   1.000E-02
 LARGEST RESIDUAL HEAT FLUX         1.290E-12   AT NODE       2670   DOF 11
   INSTANCE: ELASTIC-PLASTIC-PLATE-1                                                         
 LARGEST INCREMENT OF TEMP.        -3.236E-02   AT NODE        246   DOF 11
   INSTANCE: ELASTIC-PLASTIC-PLATE-1                                                         
 LARGEST CORRECTION TO TEMP.        3.149E-03   AT NODE        241   DOF 11
   INSTANCE: ELASTIC-PLASTIC-PLATE-1                                                         
          THERE IS ZERO HEAT FLUX EVERYWHERE
 

 ***WARNING: THERE IS ZERO HEAT FLUX EVERYWHERE IN THE MODEL BASED ON THE 
             DEFAULT CRITERION. PLEASE CHECK THE VALUE OF THE AVERAGE HEAT FLUX 
             DURING THE CURRENT ITERATION TO VERIFY THAT THE HEAT FLUX IS SMALL 
             ENOUGH TO BE TREATED AS ZERO. IF NOT, PLEASE USE THE SOLUTION 
             CONTROLS TO RESET THE CRITERION FOR ZERO HEAT FLUX.

 COMPATIBILITY ERRORS:
    TYPE                NUMBER EXCEEDING TOLERANCE  MAXIMUM ERROR        IN ELEMENT
 VOLUMETRIC                          0               -3.922E-12               1692
   INSTANCE: ELASTIC-PLASTIC-PLATE-1                                                         

 ITERATION SUMMARY FOR THE INCREMENT:   1 TOTAL ITERATIONS, OF WHICH
   0 ARE SEVERE DISCONTINUITY ITERATIONS AND  1 ARE EQUILIBRIUM ITERATIONS.

 TIME INCREMENT COMPLETED  1.000E+03,  FRACTION OF STEP COMPLETED   1.00    
 STEP TIME COMPLETED       1.000E+05,  TOTAL TIME COMPLETED        1.000E+05


          THE ANALYSIS HAS BEEN COMPLETED



     ANALYSIS SUMMARY:
     TOTAL OF        100  INCREMENTS
                       0  CUTBACKS IN AUTOMATIC INCREMENTATION
                     130  ITERATIONS INCLUDING CONTACT ITERATIONS IF PRESENT
                     130  PASSES THROUGH THE EQUATION SOLVER OF WHICH 
                     130  INVOLVE MATRIX DECOMPOSITION, INCLUDING
                       0  DECOMPOSITION(S) OF THE MASS MATRIX
                       1  REORDERING OF EQUATIONS TO MINIMIZE WAVEFRONT
                       0  ADDITIONAL RESIDUAL EVALUATIONS FOR LINE SEARCHES
                       0  ADDITIONAL OPERATOR EVALUATIONS FOR LINE SEARCHES
                       0  WARNING MESSAGES DURING USER INPUT PROCESSING
                     130  WARNING MESSAGES DURING ANALYSIS
                       0  ANALYSIS WARNINGS ARE NUMERICAL PROBLEM MESSAGES
                       0  ANALYSIS WARNINGS ARE NEGATIVE EIGENVALUE MESSAGES
                       0  ERROR MESSAGES



     JOB TIME SUMMARY
       USER TIME (SEC)      =      80.    
       SYSTEM TIME (SEC)    =      9.0    
       TOTAL CPU TIME (SEC) =      89.    
       WALLCLOCK TIME (SEC) =           45
       MEMORY PEAK (GB)     =            0
