*Heading
**
*system
 0., 0., 14., 1., 0., 14.
 0., 1., 14.
*Node, nset=plate
      1,         -60.,         -25.,          3.5
      2,         -60.,  -17.8571434,          3.5
      3,         -60.,  -10.7142859,          3.5
      4,         -60.,  -3.57142854,          3.5
      5,         -60.,   3.57142854,          3.5
      6,         -60.,   10.7142859,          3.5
      7,         -60.,   17.8571434,          3.5
      8,         -60.,          25.,          3.5
      9,         -60.,         -25.,           0.
     10,         -60.,  -17.8571434,           0.
     11,         -60.,  -10.7142859,           0.
     12,         -60.,  -3.57142854,           0.
     13,         -60.,   3.57142854,           0.
     14,         -60.,   10.7142859,           0.
     15,         -60.,   17.8571434,           0.
     16,         -60.,          25.,           0.
     17,  -52.9411774,         -25.,          3.5
     18,  -52.9411774,  -17.8571434,          3.5
     19,  -52.9411774,  -10.7142859,          3.5
     20,  -52.9411774,  -3.57142854,          3.5
** ... 268 like lines cut
*Element, type=C3D8I, elset=plate
  1,  17,  18,  26,  25,   1,   2,  10,   9
  2,  18,  19,  27,  26,   2,   3,  11,  10
  3,  19,  20,  28,  27,   3,   4,  12,  11
  4,  20,  21,  29,  28,   4,   5,  13,  12
  5,  21,  22,  30,  29,   5,   6,  14,  13
  6,  22,  23,  31,  30,   6,   7,  15,  14
  7,  23,  24,  32,  31,   7,   8,  16,  15
  8,  33,  34,  42,  41,  17,  18,  26,  25
  9,  34,  35,  43,  42,  18,  19,  27,  26
 10,  35,  36,  44,  43,  19,  20,  28,  27
 11,  36,  37,  45,  44,  20,  21,  29,  28
 12,  37,  38,  46,  45,  21,  22,  30,  29
 13,  38,  39,  47,  46,  22,  23,  31,  30
 14,  39,  40,  48,  47,  23,  24,  32,  31
 15,  49,  50,  58,  57,  33,  34,  42,  41
 16,  50,  51,  59,  58,  34,  35,  43,  42
 17,  51,  52,  60,  59,  35,  36,  44,  43
 18,  52,  53,  61,  60,  36,  37,  45,  44
 19,  53,  54,  62,  61,  37,  38,  46,  45
 20,  54,  55,  63,  62,  38,  39,  47,  46
** ... 99 like lines cut
*Solid Section, elset=plate, material=Titanium
**
*system
*Node, nset=ballRef
 289, 0., 0., 0.
*Surface, type=REVOLUTION, name=ball
 0., 0., 0., 0., 1., 0.
 START,           0.,          14.
 CIRCL,          14.,           0.,           0.,           0.
 CIRCL,           0.,         -14.,           0.,           0.
*Rigid Body, ref node=ballRef, analytical surface=ball
*Element, type=MASS, elset=surf-MASS
 1005, 289
*Mass, elset=surf-MASS
 1.e-7, 
*Element, type=ROTARYI, elset=surf-ROTI
 1006, 289
*RotaryI, elset=surf-ROTI
 1.e-6, 1.e-6, 1.e-6, 0., 0., 0.
**  
*Node, nset=coreRef
 489, 0., 0., 0.
*Element, type=MASS, elset=core-MASS
 1001, 489
*Mass, elset=core-MASS
 4e-05, 
*Element, type=ROTARYI, elset=core-ROTI
 1002, 489
*RotaryI, elset=core-ROTI
 0.00225, 0.00225, 0.00225, 0., 0., 0.
**  
*Node, nset=shellRef
 389, 0., 0., 0.
*Element, type=MASS, elset=shell-MASS
 1003, 389
*Mass, elset=shell-MASS
 9e-06, 
*Element, type=ROTARYI, elset=shell-ROTI
 1004, 389
*RotaryI, elset=shell-ROTI
 0.001125, 0.001125, 0.001125, 0., 0., 0.
**  
*Orientation, name=Rect
 1., 0., 0., 0., 1., 0.
 1, 0.
*Element, type=CONN3D2, elset=surfToShell
2001, 289, 389
*Connector Section, elset=surfToShell, behavior=surfToShell
Cartesian, Cardan
Rect,
*Element, type=CONN3D2, elset=shellToCore
 2002, 389, 489
*Connector Section, elset=shellToCore, behavior=shellToCore
Cartesian, Cardan
Rect,
*Nset, nset=Edges
   1,   2,   3,   4,   5,   6,   7,   8,   9,  10,  11,  12,  13,  14,  15,  16
  17,  24,  25,  32,  33,  40,  41,  48,  49,  56,  57,  64,  65,  72,  73,  80
  81,  88,  89,  96,  97, 104, 105, 112, 113, 120, 121, 128, 129, 136, 137, 144
 145, 152, 153, 160, 161, 168, 169, 176, 177, 184, 185, 192, 193, 200, 201, 208
 209, 216, 217, 224, 225, 232, 233, 240, 241, 248, 249, 256, 257, 264, 265, 272
 273, 274, 275, 276, 277, 278, 279, 280, 281, 282, 283, 284, 285, 286, 287, 288
*Surface, type=ELEMENT, name=plate
 plate, s5
**
*Connector Behavior, name=surfToShell
**
*Connector Elasticity, component=1
  5000.,
*Connector Elasticity, component=2
  5000.,
*Connector Elasticity, component=3
  5000.,
*Connector Elasticity, component=4
235500.,
*Connector Elasticity, component=5
235500.,
*Connector Elasticity, component=6
235500.,
*Connector Damping, component=1
 0.005,
*Connector Damping, component=2
 0.005,
*Connector Damping, component=3
 0.005,
*Connector Damping, component=4
  0.35,
*Connector Damping, component=5
  0.35,
*Connector Damping, component=6
  0.35,
**
*Connector Behavior, name=shellToCore
**
*Connector Elasticity, component=1
  5000.,
*Connector Elasticity, component=2
  5000.,
*Connector Elasticity, component=3
  5000.,
*Connector Elasticity, component=4
235500.,
*Connector Elasticity, component=5
235500.,
*Connector Elasticity, component=6
235500.,
*Connector Damping, component=1
 0.45,
*Connector Damping, component=2
 0.45,
*Connector Damping, component=3
 0.45,
*Connector Damping, component=4
  35.,
*Connector Damping, component=5
  35.,
*Connector Damping, component=6
  35.,
** 
*Material, name=Titanium
*Density
 7.625e-09,
*Elastic
110000., 0.29
** 
*Surface Interaction, name=Fric
1.,
*Friction, slip tolerance=0.005
 0.25,
** 
*Boundary
Edges, PINNED
** 
*Initial Conditions, type=VELOCITY
ballRef, 1, 0.
ballRef, 2, 9000.
ballRef, 3, 30000.
*Initial Conditions, type=VELOCITY
coreRef, 1, 0.
coreRef, 2, 9000.
coreRef, 3, 30000.
*Initial Conditions, type=VELOCITY
shellRef, 1, 0.
shellRef, 2, 9000.
shellRef, 3, 30000.
** 
*Contact
*Contact Inclusions, ALL EXTERIOR
*Contact Property Assignment
 ,  , Fric
** 
*Step, name=Step-1, nlgeom=YES, inc=1000
**
** Case 1:
**
*Dynamic, Direct
2.5e-4,0.001,3e-9,0.001
**
** Case 2:
**
***Dynamic, haftol=1e4
**2.5e-5,0.001
**
** Case 3:
**
***Dynamic
**2.5e-5,0.001, ,2.5e-5
**
** Case 4:
**
***Dynamic, application=TRANSIENT FIDELITY
**2.5e-5,0.001
** 
*Output, field, variable=PRESELECT
*Output, history, variable=PRESELECT, frequency=1
*Node Output, nset=ballRef
V1, V2, V3
*Node Output, nset=coreRef
V1, V2, V3
*Node Output, nset=shellRef
V1, V2, V3
*End Step
