1

   Abaqus 2023                                  Date 08-Dec-2024   Time 19:28:28
   For use by CSC_ IT CENTER FOR SCIENCE LTD under license from Dassault Systemes or its subsidiary.



                         The Abaqus Software is a product of:

                           Dassault Systemes SIMULIA Corp.
                           1301 Atwood Avenue, Suite 101W
                              Johnston, RI 02919, USA
 


                   The Abaqus Software is available only under license
                   from Dassault Systemes or its subsidiary and may be
                   used or reproduced only in accordance with the terms
                   of such license.
 
                          On machine r17c30.bullx 
                          you are authorized to run
                          Abaqus/Standard until 27-Feb-2025

                          Your site id is: 200000000037812 


 
                    For assistance or any other information you may
                    obtain contact information for your local office
                    from the world wide web at:

                      http://www.3ds.com/products/simulia/locations/

 
                * * * * * * * * * * * * * * * * * * * * * * * * * * * * * * 
                *                                                         * 
                *                   *****************                     * 
                *                   *  N O T I C E  *                     * 
                *                   *****************                     * 
                *                                                         * 
                *                                                         * 
                *                       Abaqus 2023                       * 
                *                                                         * 
                *          BUILD ID: 2022_09_28-21.11.55 183150           * 
                *                                                         * 
                *                                                         * 
                *  Please make sure you are using                         * 
                *  release Abaqus 2023 manuals                            * 
                *  plus the notes accompanying this release.              * 
                *                                                         * 
                *                                                         * 
                *                                                         * 
                *                                                         * 
                *                                                         * 
                *   This program may not be used for commercial purposes  * 
                *           without payment of a commercial fee.          * 
                *                                                         * 
                * * * * * * * * * * * * * * * * * * * * * * * * * * * * * * 


 



     PROCESSING PART, INSTANCE, AND ASSEMBLY INFORMATION
   *******************************************************


 ***WARNING: Line #262183 has been truncated.

 ***WARNING: Line #262186 has been truncated.

 ***WARNING: Line #262187 has been truncated.

     END PROCESSING PART, INSTANCE, AND ASSEMBLY INFORMATION
   ***********************************************************




     OPTIONS BEING PROCESSED
   ***************************


  *Heading
  *Node
  *Element, type=C3D8T
  *Nset, nset=ASSEMBLY_NDBR15_SET-1
  *Elset, elset=ASSEMBLY_NDBR15_SET-1
  *Nset, nset=ASSEMBLY_BOTTOM_PART
  *Nset, nset=ASSEMBLY_HYDROGEN_SURFACE
  *Nset, nset=ASSEMBLY_TOP_PART
  *Nset, nset=ASSEMBLY_TOP_SURFACE
  *Nset, nset=ASSEMBLY_WHOLE_PART
  *Nset, nset=ASSEMBLY_ZSYMM
  *Elset, elset=ASSEMBLY_BOTTOM_PART
  *Elset, elset=ASSEMBLY_HYDROGEN_SURFACE
  *Elset, elset=ASSEMBLY_TOP_PART
  *Elset, elset=ASSEMBLY_TOP_SURFACE
  *Elset, elset=ASSEMBLY_WHOLE_PART
  *Elset, elset=ASSEMBLY_ZSYMM
  *coupledtemperature-displacement, creep=NONE
  *coupledtemperature-displacement, creep=NONE, deltmx=1000
  *material, name=CP1000
  *density
  *depvar
  *usermaterial, constants=24, type=THERMAL
  *usermaterial, constants=208, type=MECHANICAL
  *useroutputvariables
  *initialconditions, type=SOLUTION
  *solidsection, elset=ASSEMBLY_NDBR15_SET-1, material=CP1000
  *solidsection, elset=ASSEMBLY_NDBR15_SET-1, material=CP1000
  *initialconditions, type=SOLUTION
  *boundary, amplitude=DIFFUSION_PRECHARGING
  *boundary
  *boundary, op=NEW, amplitude=DIFFUSION_INSITU
  *boundary, op=NEW
  *boundary, op=NEW
  *boundary, op=NEW
  *boundary, op=NEW, amplitude=LOADING_INSITU
  *boundary, op=NEW
  *boundary, op=NEW
  *boundary, amplitude=DIFFUSION_PRECHARGING
  *boundary
  *output, field
  *output, history, frequency=0
  *output, field, numberinterval=100
  *output, field, timepoints=TIMEPOINTS-1
  *output, history, frequency=0
  *elementoutput, directions=YES
  *elementoutput, directions=YES
  *elementoutput, directions=YES
  *initialconditions, type=SOLUTION

 ***WARNING: THE OPTION *FIELD IS USED BUT THE OPTION *INITIAL 
             CONDITIONS,TYPE=FIELD IS NOT. THE INITIAL FIELD VARIABLE VALUES 
             ARE ASSUMED TO BE ZERO.
  *field, variable=1, user
  *output, field
  *output, history, frequency=0
  *output, field, numberinterval=100
  *output, field, timepoints=TIMEPOINTS-1
  *output, history, frequency=0
  *elementoutput, directions=YES
  *elementoutput, directions=YES
  *elementoutput, directions=YES
  *initialconditions, type=SOLUTION
  *initialconditions, type=SOLUTION
  *output, field
  *output, history, frequency=0
  *output, field, numberinterval=100
  *output, field, timepoints=TIMEPOINTS-1
  *output, history, frequency=0
  *elementoutput, directions=YES
  *elementoutput, directions=YES
  *elementoutput, directions=YES
  
                               E L E M E N T   Q U A L I T Y  C H E C K S        
  
  
 ***NOTES: DISTORTED ISOPARAMETRIC ELEMENTS: ANGLE BETWEEN ISOPARAMETRIC LINES 
           IS LESS THAN 45 DEGREES OR GREATER THAN 135 DEGREES.
  
           TETRAHEDRAL QUALITY MEASURE: VOLUME OF TETRAHEDRON DIVIDED BY THE 
           VOLUME OF EQUILATERAL TETRAHEDRON WITH SAME CIRCUMSPHERE RADIUS; 
           0 FOR DEGENERATE TETRAHEDRON AND 1 FOR EQUILATERIAL TETRAHEDRON. IT 
           IS RECOMMENDED THAT THE TETRAHEDRAL QUALITY MEASURE BE GREATER THAN 
           0.02, THE MIN INTERIOR (DIHEDRAL) ANGLE BE GREATER THAN 10 DEGREES, 
           AND THE MAX INTERIOR (DIHEDRAL) ANGLE BE LESS THAN 160 DEGREES. 
  
           MODIFIED TETRAHEDRAL QUALITY MEASURE: ANGLES BETWEEN THE TWO LINE 
           SEGMENTS ON EACH EDGE; THE EDGES OF MODIFIED TETRAHEDRAL SHOULD BE 
           AS STRAIGHT AS POSSIBLE. IT IS RECOMMENDED THAT THE ANGLE BETWEEN 
           THE TWO LINE SEGMENTS ON EACH EDGE IS BETWEEN 160 AND 180 DEGREES. 
  
           TRIANGULAR QUALITY MEASURE: AREA OF TRIANGLE DIVIDED BY THE AREA OF 
           EQUILATERAL TRIANGLE WITH SAME CIRCUMCIRCLE RADIUS; 0 FOR DEGENERATE 
           TRIANGLE AND 1 FOR EQUILATERAL TRIANGLE. IT IS RECOMMENDED THAT THE
           TRIANGULAR QUALITY MEASURE BE GREATER THAN 0.01, THE MIN INTERIOR 
           ANGLE BE GREATER THAN 10 DEGREES, AND THE MAX INTERIOR ANGLE BE LESS 
           THAN 160 DEGREES. 
  
           NODAL ADJUSTMENTS ARISING FROM CONTACT INTERACTIONS AND/OR TIE 
           CONSTRAINTS CAN CAUSE SEVERE ELEMENT DISTORTION. IT MAY BE NECESSARY 
           TO REMESH IN ORDER TO REDUCE THE AMOUNT OF ADJUSTMENT. 

 ***WARNING: 616 elements are distorted. Either the isoparametric angles are 
             out of the suggested limits or the triangular or tetrahedral 
             quality measure is bad. The elements have been identified in 
             element set WarnElemDistorted.
  
 --------------------------------------------------------------------------------
 Distorted isoparametric elements
  
     Element       Min/max angle   Adjusted nodes 
 ---------------- ---------------- -------------- 
     NDBR15.32714          40.6068       NO       
     NDBR15.32715          14.7705       NO       
     NDBR15.32717          42.4444       NO       
     NDBR15.32718          40.8126       NO       
     NDBR15.32720          16.6263       NO       
     NDBR15.32724          41.4952       NO       
     NDBR15.32725          41.3131       NO       
     NDBR15.32726          14.7865       NO       
     NDBR15.32727          42.8823       NO       
     NDBR15.32729          5.88414       NO       
     NDBR15.32730          6.08138       NO       
     NDBR15.32731          38.5605       NO       
     NDBR15.32732          21.8354       NO       
     NDBR15.32739          43.6414       NO       
     NDBR15.32741          40.6068       NO       
     NDBR15.32742          14.7705       NO       
     NDBR15.32744          42.4444       NO       
     NDBR15.32745          40.8126       NO       
     NDBR15.32747          16.6263       NO       
     NDBR15.32751          41.4952       NO       
     NDBR15.32752          41.3131       NO       
     NDBR15.32753          14.7865       NO       
     NDBR15.32754          42.8823       NO       
     NDBR15.32756          5.88414       NO       
     NDBR15.32757          6.08138       NO       
     NDBR15.32758          38.5605       NO       
     NDBR15.32759          21.8354       NO       
     NDBR15.32766          43.6414       NO       
     NDBR15.32768          40.6068       NO       
     NDBR15.32769          14.7705       NO       
     NDBR15.32771          42.4444       NO       
     NDBR15.32772          40.8126       NO       
     NDBR15.32774          16.6263       NO       
     NDBR15.32778          41.4952       NO       
     NDBR15.32779          41.3131       NO       
     NDBR15.32780          14.7865       NO       
     NDBR15.32781          42.8823       NO       
     NDBR15.32783          5.88414       NO       
     NDBR15.32784          6.08138       NO       
     NDBR15.32785          38.5605       NO       
     NDBR15.32786          21.8354       NO       
     NDBR15.32793          43.6414       NO       
     NDBR15.32795          40.6068       NO       
     NDBR15.32796          14.7705       NO       
     NDBR15.32798          42.4444       NO       
     NDBR15.32799          40.8126       NO       
     NDBR15.32801          16.6263       NO       
     NDBR15.32805          41.4952       NO       
     NDBR15.32806          41.3131       NO       
     NDBR15.32807          14.7865       NO       
     NDBR15.32808          42.8823       NO       
     NDBR15.32810          5.88414       NO       
     NDBR15.32811          6.08138       NO       
     NDBR15.32812          38.5605       NO       
     NDBR15.32813          21.8354       NO       
     NDBR15.32820          43.6414       NO       
     NDBR15.32822          40.6068       NO       
     NDBR15.32823          14.7705       NO       
     NDBR15.32825          42.4444       NO       
     NDBR15.32826          40.8126       NO       
     NDBR15.32828          16.6263       NO       
     NDBR15.32832          41.4952       NO       
     NDBR15.32833          41.3131       NO       
     NDBR15.32834          14.7865       NO       
     NDBR15.32835          42.8823       NO       
     NDBR15.32837          5.88414       NO       
     NDBR15.32838          6.08138       NO       
     NDBR15.32839          38.5605       NO       
     NDBR15.32840          21.8354       NO       
     NDBR15.32847          43.6414       NO       
     NDBR15.32849          40.6068       NO       
     NDBR15.32850          14.7705       NO       
     NDBR15.32852          42.4444       NO       
     NDBR15.32853          40.8126       NO       
     NDBR15.32855          16.6263       NO       
     NDBR15.32859          41.4952       NO       
     NDBR15.32860          41.3131       NO       
     NDBR15.32861          14.7865       NO       
     NDBR15.32862          42.8823       NO       
     NDBR15.32864          5.88414       NO       
     NDBR15.32865          6.08138       NO       
     NDBR15.32866          38.5605       NO       
     NDBR15.32867          21.8354       NO       
     NDBR15.32874          43.6414       NO       
     NDBR15.32876          40.6068       NO       
     NDBR15.32877          14.7705       NO       
     NDBR15.32879          42.4444       NO       
     NDBR15.32880          40.8126       NO       
     NDBR15.32882          16.6263       NO       
     NDBR15.32886          41.4952       NO       
     NDBR15.32887          41.3131       NO       
     NDBR15.32888          14.7865       NO       
     NDBR15.32889          42.8823       NO       
     NDBR15.32891          5.88414       NO       
     NDBR15.32892          6.08138       NO       
     NDBR15.32893          38.5605       NO       
     NDBR15.32894          21.8354       NO       
     NDBR15.32901          43.6414       NO       
     NDBR15.32903          40.6068       NO       
     NDBR15.32904          14.7705       NO       
     NDBR15.32906          42.4444       NO       
     NDBR15.32907          40.8126       NO       
     NDBR15.32909          16.6263       NO       
     NDBR15.32913          41.4952       NO       
     NDBR15.32914          41.3131       NO       
     NDBR15.32915          14.7865       NO       
     NDBR15.32916          42.8823       NO       
     NDBR15.32918          5.88414       NO       
     NDBR15.32919          6.08138       NO       
     NDBR15.32920          38.5605       NO       
     NDBR15.32921          21.8354       NO       
     NDBR15.32928          43.6414       NO       
     NDBR15.32930          40.6068       NO       
     NDBR15.32931          14.7705       NO       
     NDBR15.32933          42.4444       NO       
     NDBR15.32934          40.8126       NO       
     NDBR15.32936          16.6263       NO       
     NDBR15.32940          41.4952       NO       
     NDBR15.32941          41.3131       NO       
     NDBR15.32942          14.7865       NO       
     NDBR15.32943          42.8823       NO       
     NDBR15.32945          5.88414       NO       
     NDBR15.32946          6.08138       NO       
     NDBR15.32947          38.5605       NO       
     NDBR15.32948          21.8354       NO       
     NDBR15.32955          43.6414       NO       
     NDBR15.32957          40.6068       NO       
     NDBR15.32958          14.7705       NO       
     NDBR15.32960          42.4444       NO       
     NDBR15.32961          40.8126       NO       
     NDBR15.32963          16.6263       NO       
     NDBR15.32967          41.4952       NO       
     NDBR15.32968          41.3131       NO       
     NDBR15.32969          14.7865       NO       
     NDBR15.32970          42.8823       NO       
     NDBR15.32972          5.88414       NO       
     NDBR15.32973          6.08138       NO       
     NDBR15.32974          38.5605       NO       
     NDBR15.32975          21.8354       NO       
     NDBR15.32982          43.6414       NO       
     NDBR15.32984          40.6068       NO       
     NDBR15.32985          14.7705       NO       
     NDBR15.32987          42.4444       NO       
     NDBR15.32988          40.8126       NO       
     NDBR15.32990          16.6263       NO       
     NDBR15.32994          41.4952       NO       
     NDBR15.32995          41.3131       NO       
     NDBR15.32996          14.7865       NO       
     NDBR15.32997          42.8823       NO       
     NDBR15.32999          5.88414       NO       
     NDBR15.33000          6.08138       NO       
     NDBR15.33001          38.5605       NO       
     NDBR15.33002          21.8354       NO       
     NDBR15.33009          43.6414       NO       
     NDBR15.33011          40.6068       NO       
     NDBR15.33012          14.7705       NO       
     NDBR15.33014          42.4444       NO       
     NDBR15.33015          40.8126       NO       
     NDBR15.33017          16.6263       NO       
     NDBR15.33021          41.4952       NO       
     NDBR15.33022          41.3131       NO       
     NDBR15.33023          14.7865       NO       
     NDBR15.33024          42.8823       NO       
     NDBR15.33026          5.88414       NO       
     NDBR15.33027          6.08138       NO       
     NDBR15.33028          38.5605       NO       
     NDBR15.33029          21.8354       NO       
     NDBR15.33036          43.6414       NO       
     NDBR15.33038          40.6068       NO       
     NDBR15.33039          14.7705       NO       
     NDBR15.33041          42.4444       NO       
     NDBR15.33042          40.8126       NO       
     NDBR15.33044          16.6263       NO       
     NDBR15.33048          41.4952       NO       
     NDBR15.33049          41.3131       NO       
     NDBR15.33050          14.7865       NO       
     NDBR15.33051          42.8823       NO       
     NDBR15.33053          5.88414       NO       
     NDBR15.33054          6.08138       NO       
     NDBR15.33055          38.5605       NO       
     NDBR15.33056          21.8354       NO       
     NDBR15.33063          43.6414       NO       
     NDBR15.33065          40.6068       NO       
     NDBR15.33066          14.7705       NO       
     NDBR15.33068          42.4444       NO       
     NDBR15.33069          40.8126       NO       
     NDBR15.33071          16.6263       NO       
     NDBR15.33075          41.4952       NO       
     NDBR15.33076          41.3131       NO       
     NDBR15.33077          14.7865       NO       
     NDBR15.33078          42.8823       NO       
     NDBR15.33080          5.88414       NO       
     NDBR15.33081          6.08138       NO       
     NDBR15.33082          38.5605       NO       
     NDBR15.33083          21.8354       NO       
     NDBR15.33090          43.6414       NO       
     NDBR15.33092          40.6068       NO       
     NDBR15.33093          14.7705       NO       
     NDBR15.33095          42.4444       NO       
     NDBR15.33096          40.8126       NO       
     NDBR15.33098          16.6263       NO       
     NDBR15.33102          41.4952       NO       
     NDBR15.33103          41.3131       NO       
     NDBR15.33104          14.7865       NO       
     NDBR15.33105          42.8823       NO       
     NDBR15.33107          5.88414       NO       
     NDBR15.33108          6.08138       NO       
     NDBR15.33109          38.5605       NO       
     NDBR15.33110          21.8354       NO       
     NDBR15.33117          43.6414       NO       
     NDBR15.33119          40.6068       NO       
     NDBR15.33120          14.7705       NO       
     NDBR15.33122          42.4444       NO       
     NDBR15.33123          40.8126       NO       
     NDBR15.33125          16.6263       NO       
     NDBR15.33129          41.4952       NO       
     NDBR15.33130          41.3131       NO       
     NDBR15.33131          14.7865       NO       
     NDBR15.33132          42.8823       NO       
     NDBR15.33134          5.88414       NO       
     NDBR15.33135          6.08138       NO       
     NDBR15.33136          38.5605       NO       
     NDBR15.33137          21.8354       NO       
     NDBR15.33144          43.6414       NO       
     NDBR15.33146          40.6068       NO       
     NDBR15.33147          14.7705       NO       
     NDBR15.33149          42.4444       NO       
     NDBR15.33150          40.8126       NO       
     NDBR15.33152          16.6263       NO       
     NDBR15.33156          41.4952       NO       
     NDBR15.33157          41.3131       NO       
     NDBR15.33158          14.7865       NO       
     NDBR15.33159          42.8823       NO       
     NDBR15.33161          5.88414       NO       
     NDBR15.33162          6.08138       NO       
     NDBR15.33163          38.5605       NO       
     NDBR15.33164          21.8354       NO       
     NDBR15.33171          43.6414       NO       
     NDBR15.33173          40.6068       NO       
     NDBR15.33174          14.7705       NO       
     NDBR15.33176          42.4444       NO       
     NDBR15.33177          40.8126       NO       
     NDBR15.33179          16.6263       NO       
     NDBR15.33183          41.4952       NO       
     NDBR15.33184          41.3131       NO       
     NDBR15.33185          14.7865       NO       
     NDBR15.33186          42.8823       NO       
     NDBR15.33188          5.88414       NO       
     NDBR15.33189          6.08138       NO       
     NDBR15.33190          38.5605       NO       
     NDBR15.33191          21.8354       NO       
     NDBR15.33198          43.6414       NO       
     NDBR15.33200          40.6068       NO       
     NDBR15.33201          14.7705       NO       
     NDBR15.33203          42.4444       NO       
     NDBR15.33204          40.8126       NO       
     NDBR15.33206          16.6263       NO       
     NDBR15.33210          41.4952       NO       
     NDBR15.33211          41.3131       NO       
     NDBR15.33212          14.7865       NO       
     NDBR15.33213          42.8823       NO       
     NDBR15.33215          5.88414       NO       
     NDBR15.33216          6.08138       NO       
     NDBR15.33217          38.5605       NO       
     NDBR15.33218          21.8354       NO       
     NDBR15.33225          43.6414       NO       
     NDBR15.33227          40.6068       NO       
     NDBR15.33228          14.7705       NO       
     NDBR15.33230          42.4444       NO       
     NDBR15.33231          40.8126       NO       
     NDBR15.33233          16.6263       NO       
     NDBR15.33237          41.4952       NO       
     NDBR15.33238          41.3131       NO       
     NDBR15.33239          14.7865       NO       
     NDBR15.33240          42.8823       NO       
     NDBR15.33242          5.88414       NO       
     NDBR15.33243          6.08138       NO       
     NDBR15.33244          38.5605       NO       
     NDBR15.33245          21.8354       NO       
     NDBR15.33252          43.6414       NO       
     NDBR15.33254          40.6068       NO       
     NDBR15.33255          14.7705       NO       
     NDBR15.33257          42.4444       NO       
     NDBR15.33258          40.8126       NO       
     NDBR15.33260          16.6263       NO       
     NDBR15.33264          41.4952       NO       
     NDBR15.33265          41.3131       NO       
     NDBR15.33266          14.7865       NO       
     NDBR15.33267          42.8823       NO       
     NDBR15.33269          5.88414       NO       
     NDBR15.33270          6.08138       NO       
     NDBR15.33271          38.5605       NO       
     NDBR15.33272          21.8354       NO       
     NDBR15.33279          43.6414       NO       
     NDBR15.33281          40.6068       NO       
     NDBR15.33282          14.7705       NO       
     NDBR15.33284          42.4444       NO       
     NDBR15.33285          40.8126       NO       
     NDBR15.33287          16.6263       NO       
     NDBR15.33291          41.4952       NO       
     NDBR15.33292          41.3131       NO       
     NDBR15.33293          14.7865       NO       
     NDBR15.33294          42.8823       NO       
     NDBR15.33296          5.88414       NO       
     NDBR15.33297          6.08138       NO       
     NDBR15.33298          38.5605       NO       
     NDBR15.33299          21.8354       NO       
     NDBR15.33306          43.6414       NO       
     NDBR15.59068          42.4435       NO       
     NDBR15.59071          40.8318       NO       
     NDBR15.59073           41.519       NO       
     NDBR15.59074          14.7776       NO       
     NDBR15.59077          42.8886       NO       
     NDBR15.59078          38.5671       NO       
     NDBR15.59080          41.3209       NO       
     NDBR15.59081          14.7948       NO       
     NDBR15.59082          16.6223       NO       
     NDBR15.59083          43.6345       NO       
     NDBR15.59084          5.88724       NO       
     NDBR15.59086           6.0781       NO       
     NDBR15.59087          21.8413       NO       
     NDBR15.59090          40.5921       NO       
     NDBR15.59095          42.4435       NO       
     NDBR15.59098          40.8318       NO       
     NDBR15.59100           41.519       NO       
     NDBR15.59101          14.7776       NO       
     NDBR15.59104          42.8886       NO       
     NDBR15.59105          38.5671       NO       
     NDBR15.59107          41.3209       NO       
     NDBR15.59108          14.7948       NO       
     NDBR15.59109          16.6223       NO       
     NDBR15.59110          43.6345       NO       
     NDBR15.59111          5.88724       NO       
     NDBR15.59113           6.0781       NO       
     NDBR15.59114          21.8413       NO       
     NDBR15.59117          40.5921       NO       
     NDBR15.59122          42.4435       NO       
     NDBR15.59125          40.8318       NO       
     NDBR15.59127           41.519       NO       
     NDBR15.59128          14.7776       NO       
     NDBR15.59131          42.8886       NO       
     NDBR15.59132          38.5671       NO       
     NDBR15.59134          41.3209       NO       
     NDBR15.59135          14.7948       NO       
     NDBR15.59136          16.6223       NO       
     NDBR15.59137          43.6345       NO       
     NDBR15.59138          5.88724       NO       
     NDBR15.59140           6.0781       NO       
     NDBR15.59141          21.8413       NO       
     NDBR15.59144          40.5921       NO       
     NDBR15.59149          42.4435       NO       
     NDBR15.59152          40.8318       NO       
     NDBR15.59154           41.519       NO       
     NDBR15.59155          14.7776       NO       
     NDBR15.59158          42.8886       NO       
     NDBR15.59159          38.5671       NO       
     NDBR15.59161          41.3209       NO       
     NDBR15.59162          14.7948       NO       
     NDBR15.59163          16.6223       NO       
     NDBR15.59164          43.6345       NO       
     NDBR15.59165          5.88724       NO       
     NDBR15.59167           6.0781       NO       
     NDBR15.59168          21.8413       NO       
     NDBR15.59171          40.5921       NO       
     NDBR15.59176          42.4435       NO       
     NDBR15.59179          40.8318       NO       
     NDBR15.59181           41.519       NO       
     NDBR15.59182          14.7776       NO       
     NDBR15.59185          42.8886       NO       
     NDBR15.59186          38.5671       NO       
     NDBR15.59188          41.3209       NO       
     NDBR15.59189          14.7948       NO       
     NDBR15.59190          16.6223       NO       
     NDBR15.59191          43.6345       NO       
     NDBR15.59192          5.88724       NO       
     NDBR15.59194           6.0781       NO       
     NDBR15.59195          21.8413       NO       
     NDBR15.59198          40.5921       NO       
     NDBR15.59203          42.4435       NO       
     NDBR15.59206          40.8318       NO       
     NDBR15.59208           41.519       NO       
     NDBR15.59209          14.7776       NO       
     NDBR15.59212          42.8886       NO       
     NDBR15.59213          38.5671       NO       
     NDBR15.59215          41.3209       NO       
     NDBR15.59216          14.7948       NO       
     NDBR15.59217          16.6223       NO       
     NDBR15.59218          43.6345       NO       
     NDBR15.59219          5.88724       NO       
     NDBR15.59221           6.0781       NO       
     NDBR15.59222          21.8413       NO       
     NDBR15.59225          40.5921       NO       
     NDBR15.59230          42.4435       NO       
     NDBR15.59233          40.8318       NO       
     NDBR15.59235           41.519       NO       
     NDBR15.59236          14.7776       NO       
     NDBR15.59239          42.8886       NO       
     NDBR15.59240          38.5671       NO       
     NDBR15.59242          41.3209       NO       
     NDBR15.59243          14.7948       NO       
     NDBR15.59244          16.6223       NO       
     NDBR15.59245          43.6345       NO       
     NDBR15.59246          5.88724       NO       
     NDBR15.59248           6.0781       NO       
     NDBR15.59249          21.8413       NO       
     NDBR15.59252          40.5921       NO       
     NDBR15.59257          42.4435       NO       
     NDBR15.59260          40.8318       NO       
     NDBR15.59262           41.519       NO       
     NDBR15.59263          14.7776       NO       
     NDBR15.59266          42.8886       NO       
     NDBR15.59267          38.5671       NO       
     NDBR15.59269          41.3209       NO       
     NDBR15.59270          14.7948       NO       
     NDBR15.59271          16.6223       NO       
     NDBR15.59272          43.6345       NO       
     NDBR15.59273          5.88724       NO       
     NDBR15.59275           6.0781       NO       
     NDBR15.59276          21.8413       NO       
     NDBR15.59279          40.5921       NO       
     NDBR15.59284          42.4435       NO       
     NDBR15.59287          40.8318       NO       
     NDBR15.59289           41.519       NO       
     NDBR15.59290          14.7776       NO       
     NDBR15.59293          42.8886       NO       
     NDBR15.59294          38.5671       NO       
     NDBR15.59296          41.3209       NO       
     NDBR15.59297          14.7948       NO       
     NDBR15.59298          16.6223       NO       
     NDBR15.59299          43.6345       NO       
     NDBR15.59300          5.88724       NO       
     NDBR15.59302           6.0781       NO       
     NDBR15.59303          21.8413       NO       
     NDBR15.59306          40.5921       NO       
     NDBR15.59311          42.4435       NO       
     NDBR15.59314          40.8318       NO       
     NDBR15.59316           41.519       NO       
     NDBR15.59317          14.7776       NO       
     NDBR15.59320          42.8886       NO       
     NDBR15.59321          38.5671       NO       
     NDBR15.59323          41.3209       NO       
     NDBR15.59324          14.7948       NO       
     NDBR15.59325          16.6223       NO       
     NDBR15.59326          43.6345       NO       
     NDBR15.59327          5.88724       NO       
     NDBR15.59329           6.0781       NO       
     NDBR15.59330          21.8413       NO       
     NDBR15.59333          40.5921       NO       
     NDBR15.59338          42.4435       NO       
     NDBR15.59341          40.8318       NO       
     NDBR15.59343           41.519       NO       
     NDBR15.59344          14.7776       NO       
     NDBR15.59347          42.8886       NO       
     NDBR15.59348          38.5671       NO       
     NDBR15.59350          41.3209       NO       
     NDBR15.59351          14.7948       NO       
     NDBR15.59352          16.6223       NO       
     NDBR15.59353          43.6345       NO       
     NDBR15.59354          5.88724       NO       
     NDBR15.59356           6.0781       NO       
     NDBR15.59357          21.8413       NO       
     NDBR15.59360          40.5921       NO       
     NDBR15.59365          42.4435       NO       
     NDBR15.59368          40.8318       NO       
     NDBR15.59370           41.519       NO       
     NDBR15.59371          14.7776       NO       
     NDBR15.59374          42.8886       NO       
     NDBR15.59375          38.5671       NO       
     NDBR15.59377          41.3209       NO       
     NDBR15.59378          14.7948       NO       
     NDBR15.59379          16.6223       NO       
     NDBR15.59380          43.6345       NO       
     NDBR15.59381          5.88724       NO       
     NDBR15.59383           6.0781       NO       
     NDBR15.59384          21.8413       NO       
     NDBR15.59387          40.5921       NO       
     NDBR15.59392          42.4435       NO       
     NDBR15.59395          40.8318       NO       
     NDBR15.59397           41.519       NO       
     NDBR15.59398          14.7776       NO       
     NDBR15.59401          42.8886       NO       
     NDBR15.59402          38.5671       NO       
     NDBR15.59404          41.3209       NO       
     NDBR15.59405          14.7948       NO       
     NDBR15.59406          16.6223       NO       
     NDBR15.59407          43.6345       NO       
     NDBR15.59408          5.88724       NO       
     NDBR15.59410           6.0781       NO       
     NDBR15.59411          21.8413       NO       
     NDBR15.59414          40.5921       NO       
     NDBR15.59419          42.4435       NO       
     NDBR15.59422          40.8318       NO       
     NDBR15.59424           41.519       NO       
     NDBR15.59425          14.7776       NO       
     NDBR15.59428          42.8886       NO       
     NDBR15.59429          38.5671       NO       
     NDBR15.59431          41.3209       NO       
     NDBR15.59432          14.7948       NO       
     NDBR15.59433          16.6223       NO       
     NDBR15.59434          43.6345       NO       
     NDBR15.59435          5.88724       NO       
     NDBR15.59437           6.0781       NO       
     NDBR15.59438          21.8413       NO       
     NDBR15.59441          40.5921       NO       
     NDBR15.59446          42.4435       NO       
     NDBR15.59449          40.8318       NO       
     NDBR15.59451           41.519       NO       
     NDBR15.59452          14.7776       NO       
     NDBR15.59455          42.8886       NO       
     NDBR15.59456          38.5671       NO       
     NDBR15.59458          41.3209       NO       
     NDBR15.59459          14.7948       NO       
     NDBR15.59460          16.6223       NO       
     NDBR15.59461          43.6345       NO       
     NDBR15.59462          5.88724       NO       
     NDBR15.59464           6.0781       NO       
     NDBR15.59465          21.8413       NO       
     NDBR15.59468          40.5921       NO       
     NDBR15.59473          42.4435       NO       
     NDBR15.59476          40.8318       NO       
     NDBR15.59478           41.519       NO       
     NDBR15.59479          14.7776       NO       
     NDBR15.59482          42.8886       NO       
     NDBR15.59483          38.5671       NO       
     NDBR15.59485          41.3209       NO       
     NDBR15.59486          14.7948       NO       
     NDBR15.59487          16.6223       NO       
     NDBR15.59488          43.6345       NO       
     NDBR15.59489          5.88724       NO       
     NDBR15.59491           6.0781       NO       
     NDBR15.59492          21.8413       NO       
     NDBR15.59495          40.5921       NO       
     NDBR15.59500          42.4435       NO       
     NDBR15.59503          40.8318       NO       
     NDBR15.59505           41.519       NO       
     NDBR15.59506          14.7776       NO       
     NDBR15.59509          42.8886       NO       
     NDBR15.59510          38.5671       NO       
     NDBR15.59512          41.3209       NO       
     NDBR15.59513          14.7948       NO       
     NDBR15.59514          16.6223       NO       
     NDBR15.59515          43.6345       NO       
     NDBR15.59516          5.88724       NO       
     NDBR15.59518           6.0781       NO       
     NDBR15.59519          21.8413       NO       
     NDBR15.59522          40.5921       NO       
     NDBR15.59527          42.4435       NO       
     NDBR15.59530          40.8318       NO       
     NDBR15.59532           41.519       NO       
     NDBR15.59533          14.7776       NO       
     NDBR15.59536          42.8886       NO       
     NDBR15.59537          38.5671       NO       
     NDBR15.59539          41.3209       NO       
     NDBR15.59540          14.7948       NO       
     NDBR15.59541          16.6223       NO       
     NDBR15.59542          43.6345       NO       
     NDBR15.59543          5.88724       NO       
     NDBR15.59545           6.0781       NO       
     NDBR15.59546          21.8413       NO       
     NDBR15.59549          40.5921       NO       
     NDBR15.59554          42.4435       NO       
     NDBR15.59557          40.8318       NO       
     NDBR15.59559           41.519       NO       
     NDBR15.59560          14.7776       NO       
     NDBR15.59563          42.8886       NO       
     NDBR15.59564          38.5671       NO       
     NDBR15.59566          41.3209       NO       
     NDBR15.59567          14.7948       NO       
     NDBR15.59568          16.6223       NO       
     NDBR15.59569          43.6345       NO       
     NDBR15.59570          5.88724       NO       
     NDBR15.59572           6.0781       NO       
     NDBR15.59573          21.8413       NO       
     NDBR15.59576          40.5921       NO       
     NDBR15.59581          42.4435       NO       
     NDBR15.59584          40.8318       NO       
     NDBR15.59586           41.519       NO       
     NDBR15.59587          14.7776       NO       
     NDBR15.59590          42.8886       NO       
     NDBR15.59591          38.5671       NO       
     NDBR15.59593          41.3209       NO       
     NDBR15.59594          14.7948       NO       
     NDBR15.59595          16.6223       NO       
     NDBR15.59596          43.6345       NO       
     NDBR15.59597          5.88724       NO       
     NDBR15.59599           6.0781       NO       
     NDBR15.59600          21.8413       NO       
     NDBR15.59603          40.5921       NO       
     NDBR15.59608          42.4435       NO       
     NDBR15.59611          40.8318       NO       
     NDBR15.59613           41.519       NO       
     NDBR15.59614          14.7776       NO       
     NDBR15.59617          42.8886       NO       
     NDBR15.59618          38.5671       NO       
     NDBR15.59620          41.3209       NO       
     NDBR15.59621          14.7948       NO       
     NDBR15.59622          16.6223       NO       
     NDBR15.59623          43.6345       NO       
     NDBR15.59624          5.88724       NO       
     NDBR15.59626           6.0781       NO       
     NDBR15.59627          21.8413       NO       
     NDBR15.59630          40.5921       NO       
     NDBR15.59635          42.4435       NO       
     NDBR15.59638          40.8318       NO       
     NDBR15.59640           41.519       NO       
     NDBR15.59641          14.7776       NO       
     NDBR15.59644          42.8886       NO       
     NDBR15.59645          38.5671       NO       
     NDBR15.59647          41.3209       NO       
     NDBR15.59648          14.7948       NO       
     NDBR15.59649          16.6223       NO       
     NDBR15.59650          43.6345       NO       
     NDBR15.59651          5.88724       NO       
     NDBR15.59653           6.0781       NO       
     NDBR15.59654          21.8413       NO       
     NDBR15.59657          40.5921       NO       
  
  
  *timepoints, name=TIMEPOINTS-1
  *Step, name=step1_precharging, nlgeom=YES, inc=1000000
  *output, field
  *output, history, frequency=0
  *Step, name=step2_insitu, nlgeom=YES, inc=1000000
  *output, field, numberinterval=100
  *output, field, timepoints=TIMEPOINTS-1
  *output, history, frequency=0
  *Step, name=step1_precharging, nlgeom=YES, inc=1000000
  *Step, name=step2_insitu, nlgeom=YES, inc=1000000
  *Step, name=step1_precharging, nlgeom=YES, inc=1000000
  *coupledtemperature-displacement, creep=NONE
  *boundary, amplitude=DIFFUSION_PRECHARGING
  *boundary
  *output, field
  *nodeoutput
  *elementoutput, directions=YES
  *output, history, frequency=0
  *endstep
  *Step, name=step2_insitu, nlgeom=YES, inc=1000000
  *coupledtemperature-displacement, creep=NONE, deltmx=1000
  *boundary, op=NEW, amplitude=DIFFUSION_INSITU
  *boundary, op=NEW
  *boundary, op=NEW
  *boundary, op=NEW
  *boundary, op=NEW, amplitude=LOADING_INSITU
  *boundary, op=NEW
  *boundary, op=NEW
  *output, field, numberinterval=100
  *nodeoutput
  *elementoutput, directions=YES
  *output, field, timepoints=TIMEPOINTS-1
  *nodeoutput
  *elementoutput, directions=YES
  *output, history, frequency=0
  *endstep

 ***WARNING: OUTPUT AT EXACT, PREDEFINED TIME POINTS WAS REQUESTED IN THIS 
             STEP. Abaqus MIGHT ADJUST THE TIME INCREMENTATION BUT WILL NOT 
             VIOLATE THE MINIMUM TIME INCREMENT ALLOWED IN THE STEP IN ORDER TO 
             WRITE OUTPUT AT THOSE POINTS. CONSEQUENTLY, IN SOME CASES Abaqus 
             MIGHTWRITE OUTPUT IMMEDIATELY AFTER THE SPECIFIED TIME POINTS, 
             INSTEAD OF AT THE TIME POINTS. IN ADDITION, THE NUMBER OF 
             INCREMENTS REQUIRED TO COMPLETE THE STEP WILL IN GENERAL INCREASE.
  *Step, name=step1_precharging, nlgeom=YES, inc=1000000
  *coupledtemperature-displacement, creep=NONE
  *boundary, amplitude=DIFFUSION_PRECHARGING
  *boundary
  *field, variable=1, user
  *endstep
  *Step, name=step2_insitu, nlgeom=YES, inc=1000000
  *coupledtemperature-displacement, creep=NONE, deltmx=1000
  *boundary, op=NEW, amplitude=DIFFUSION_INSITU
  *boundary, op=NEW
  *boundary, op=NEW
  *boundary, op=NEW
  *boundary, op=NEW, amplitude=LOADING_INSITU
  *boundary, op=NEW
  *boundary, op=NEW
  *endstep



                            P R O B L E M   S I Z E


          NUMBER OF ELEMENTS IS                                121280
          NUMBER OF NODES IS                                   136786
          NUMBER OF NODES DEFINED BY THE USER                  136786
          TOTAL NUMBER OF VARIABLES IN THE MODEL               547144
          (DEGREES OF FREEDOM PLUS MAX NO. OF ANY LAGRANGE MULTIPLIER
           VARIABLES. INCLUDE *PRINT,SOLVE=YES TO GET THE ACTUAL NUMBER.)



                              END OF USER INPUT PROCESSING



     JOB TIME SUMMARY
       USER TIME (SEC)      =      6.6    
       SYSTEM TIME (SEC)    =     0.90    
       TOTAL CPU TIME (SEC) =      7.5    
       WALLCLOCK TIME (SEC) =            8
1

   Abaqus 2023                                  Date 08-Dec-2024   Time 19:28:39
   For use by CSC_ IT CENTER FOR SCIENCE LTD under license from Dassault Systemes or its subsidiary.

                                                                                               STEP    1  INCREMENT    1
                                                                                          TIME COMPLETED IN THIS STEP   0.00    


                        S T E P       1     C O U P L E D - T E M P E R A T U R E - D I S P L A C E M E N T   A N A L Y S I S


                                                                                          

          FIXED TIME INCREMENTS
          TIME INCREMENT IS                                     360.    
          TIME PERIOD IS                                       1.800E+03

          CREEP AND SWELLING EFFECTS ARE OMITTED IN THIS STEP
          THE RATE DEPENDENCY WILL BE CONSIDERED IN THIS STEP

          CREEP AND SWELLING EFFECTS WILL BE IGNORED.

          LARGE DISPLACEMENT THEORY WILL BE USED

          UNSYMMETRIC MATRIX STORAGE AND SOLUTION WILL BE USED
  
                   M E M O R Y   E S T I M A T E
  
 PROCESS      FLOATING PT       MINIMUM MEMORY        MEMORY TO
              OPERATIONS           REQUIRED          MINIMIZE I/O
             PER ITERATION           (MB)               (MB)
  
     1          4.30E+12              982              13064
  
 NOTE:
      (1) SINCE ABAQUS DOES NOT PRE-ALLOCATE MEMORY AND ONLY ALLOCATES MEMORY AS NEEDED DURING THE ANALYSIS,
          THE MEMORY REQUIREMENT PRINTED HERE CAN ONLY BE VIEWED AS A GENERAL GUIDELINE BASED ON THE BEST
          KNOWLEDGE AVAILABLE AT THE BEGINNING OF A STEP BEFORE THE SOLUTION PROCESS HAS BEGUN.
      (2) THE ESTIMATE IS NORMALLY UPDATED AT THE BEGINNING OF EVERY STEP. IT IS THE MAXIMUM VALUE OF THE
          ESTIMATE FROM THE CURRENT STEP TO THE LAST STEP OF THE ANALYSIS, WITH UNSYMMETRIC SOLUTION TAKEN
          INTO ACCOUNT IF APPLICABLE. 
      (3) SINCE THE ESTIMATE IS BASED ON THE ACTIVE DEGREES OF FREEDOM IN THE FIRST ITERATION OF THE 
          CURRENT STEP, THE MEMORY ESTIMATE MIGHT BE SIGNIFICANTLY DIFFERENT THAN ACTUAL USAGE FOR 
          PROBLEMS WITH SUBSTANTIAL CHANGES IN ACTIVE DEGREES OF FREEDOM BETWEEN STEPS (OR EVEN WITHIN
          THE SAME STEP). EXAMPLES ARE: PROBLEMS WITH SIGNIFICANT CONTACT CHANGES, PROBLEMS WITH MODEL
          CHANGE, PROBLEMS WITH BOTH STATIC STEP AND STEADY STATE DYNAMIC PROCEDURES WHERE ACOUSTIC 
          ELEMENTS WILL ONLY BE ACTIVATED IN THE STEADY STATE DYNAMIC STEPS.
      (4) FOR MULTI-PROCESS EXECUTION, THE ESTIMATED VALUE OF FLOATING POINT OPERATIONS FOR EACH PROCESS
          IS BASED ON AN INITIAL SCHEDULING OF OPERATIONS AND MIGHT NOT REFLECT THE ACTUAL FLOATING 
          POINT OPERATIONS COMPLETED ON EACH PROCESS. OPERATIONS ARE DYNAMICALLY BALANCED DURING EXECUTION, 
          SO THE ACTUAL BALANCE OF OPERATIONS BETWEEN PROCESSES IS EXPECTED TO BE BETTER THAN THE ESTIMATE
          PRINTED HERE.
      (5) THE UPPER LIMIT OF MEMORY THAT CAN BE ALLOCATED BY ABAQUS WILL IN GENERAL DEPEND ON THE VALUE OF
          THE "MEMORY" PARAMETER AND THE AMOUNT OF PHYSICAL MEMORY AVAILABLE ON THE MACHINE. PLEASE SEE
          THE "ABAQUS ANALYSIS USER'S MANUAL" FOR MORE DETAILS. THE ACTUAL USAGE OF MEMORY AND OF DISK
          SPACE FOR SCRATCH DATA WILL DEPEND ON THIS UPPER LIMIT AS WELL AS THE MEMORY REQUIRED TO MINIMIZE
          I/O. IF THE MEMORY UPPER LIMIT IS GREATER THAN THE MEMORY REQUIRED TO MINIMIZE I/O, THEN THE ACTUAL
          MEMORY USAGE WILL BE CLOSE TO THE ESTIMATED "MEMORY TO MINIMIZE I/O" VALUE, AND THE SCRATCH DISK
          USAGE WILL BE CLOSE-TO-ZERO; OTHERWISE, THE ACTUAL MEMORY USED WILL BE CLOSE TO THE PREVIOUSLY
          MENTIONED MEMORY LIMIT, AND THE SCRATCH DISK USAGE WILL BE ROUGHLY PROPORTIONAL TO THE DIFFERENCE
          BETWEEN THE ESTIMATED "MEMORY TO MINIMIZE I/O" AND THE MEMORY UPPER LIMIT. HOWEVER ACCURATE
          ESTIMATE OF THE SCRATCH DISK SPACE IS NOT POSSIBLE.
      (6) USING "*RESTART, WRITE" CAN GENERATE A LARGE AMOUNT OF DATA WRITTEN IN THE WORK DIRECTORY.
1

   Abaqus 2023                                  Date 08-Dec-2024   Time 19:31:20
   For use by CSC_ IT CENTER FOR SCIENCE LTD under license from Dassault Systemes or its subsidiary.

                                                                                               STEP    2  INCREMENT    1
                                                                                          TIME COMPLETED IN THIS STEP   0.00    


                        S T E P       2     C O U P L E D - T E M P E R A T U R E - D I S P L A C E M E N T   A N A L Y S I S


                                                                                          

     AUTOMATIC TIME CONTROL WITH -
          A SUGGESTED INITIAL TIME INCREMENT OF                 6.75    
          AND A TOTAL TIME PERIOD OF                            675.    
          THE MINIMUM TIME INCREMENT ALLOWED IS                1.000E-07
          THE MAXIMUM TIME INCREMENT ALLOWED IS                 6.75    

          CREEP AND SWELLING EFFECTS ARE OMITTED IN THIS STEP

     THE SIZE OF THE TIME INCREMENT IS CONTROLLED BY -
          THE TEMPERATURE CHANGE PER INCREMENT NOT EXCEEDING           1.000E+03
          THE RATE DEPENDENCY WILL BE CONSIDERED IN THIS STEP

          CREEP AND SWELLING EFFECTS WILL BE IGNORED.

          LARGE DISPLACEMENT THEORY WILL BE USED

          UNSYMMETRIC MATRIX STORAGE AND SOLUTION WILL BE USED
  
                   M E M O R Y   E S T I M A T E
  
 PROCESS      FLOATING PT       MINIMUM MEMORY        MEMORY TO
              OPERATIONS           REQUIRED          MINIMIZE I/O
             PER ITERATION           (MB)               (MB)
  
     1          4.30E+12              982              13064
  
 NOTE:
      (1) SINCE ABAQUS DOES NOT PRE-ALLOCATE MEMORY AND ONLY ALLOCATES MEMORY AS NEEDED DURING THE ANALYSIS,
          THE MEMORY REQUIREMENT PRINTED HERE CAN ONLY BE VIEWED AS A GENERAL GUIDELINE BASED ON THE BEST
          KNOWLEDGE AVAILABLE AT THE BEGINNING OF A STEP BEFORE THE SOLUTION PROCESS HAS BEGUN.
      (2) THE ESTIMATE IS NORMALLY UPDATED AT THE BEGINNING OF EVERY STEP. IT IS THE MAXIMUM VALUE OF THE
          ESTIMATE FROM THE CURRENT STEP TO THE LAST STEP OF THE ANALYSIS, WITH UNSYMMETRIC SOLUTION TAKEN
          INTO ACCOUNT IF APPLICABLE. 
      (3) SINCE THE ESTIMATE IS BASED ON THE ACTIVE DEGREES OF FREEDOM IN THE FIRST ITERATION OF THE 
          CURRENT STEP, THE MEMORY ESTIMATE MIGHT BE SIGNIFICANTLY DIFFERENT THAN ACTUAL USAGE FOR 
          PROBLEMS WITH SUBSTANTIAL CHANGES IN ACTIVE DEGREES OF FREEDOM BETWEEN STEPS (OR EVEN WITHIN
          THE SAME STEP). EXAMPLES ARE: PROBLEMS WITH SIGNIFICANT CONTACT CHANGES, PROBLEMS WITH MODEL
          CHANGE, PROBLEMS WITH BOTH STATIC STEP AND STEADY STATE DYNAMIC PROCEDURES WHERE ACOUSTIC 
          ELEMENTS WILL ONLY BE ACTIVATED IN THE STEADY STATE DYNAMIC STEPS.
      (4) FOR MULTI-PROCESS EXECUTION, THE ESTIMATED VALUE OF FLOATING POINT OPERATIONS FOR EACH PROCESS
          IS BASED ON AN INITIAL SCHEDULING OF OPERATIONS AND MIGHT NOT REFLECT THE ACTUAL FLOATING 
          POINT OPERATIONS COMPLETED ON EACH PROCESS. OPERATIONS ARE DYNAMICALLY BALANCED DURING EXECUTION, 
          SO THE ACTUAL BALANCE OF OPERATIONS BETWEEN PROCESSES IS EXPECTED TO BE BETTER THAN THE ESTIMATE
          PRINTED HERE.
      (5) THE UPPER LIMIT OF MEMORY THAT CAN BE ALLOCATED BY ABAQUS WILL IN GENERAL DEPEND ON THE VALUE OF
          THE "MEMORY" PARAMETER AND THE AMOUNT OF PHYSICAL MEMORY AVAILABLE ON THE MACHINE. PLEASE SEE
          THE "ABAQUS ANALYSIS USER'S MANUAL" FOR MORE DETAILS. THE ACTUAL USAGE OF MEMORY AND OF DISK
          SPACE FOR SCRATCH DATA WILL DEPEND ON THIS UPPER LIMIT AS WELL AS THE MEMORY REQUIRED TO MINIMIZE
          I/O. IF THE MEMORY UPPER LIMIT IS GREATER THAN THE MEMORY REQUIRED TO MINIMIZE I/O, THEN THE ACTUAL
          MEMORY USAGE WILL BE CLOSE TO THE ESTIMATED "MEMORY TO MINIMIZE I/O" VALUE, AND THE SCRATCH DISK
          USAGE WILL BE CLOSE-TO-ZERO; OTHERWISE, THE ACTUAL MEMORY USED WILL BE CLOSE TO THE PREVIOUSLY
          MENTIONED MEMORY LIMIT, AND THE SCRATCH DISK USAGE WILL BE ROUGHLY PROPORTIONAL TO THE DIFFERENCE
          BETWEEN THE ESTIMATED "MEMORY TO MINIMIZE I/O" AND THE MEMORY UPPER LIMIT. HOWEVER ACCURATE
          ESTIMATE OF THE SCRATCH DISK SPACE IS NOT POSSIBLE.
      (6) USING "*RESTART, WRITE" CAN GENERATE A LARGE AMOUNT OF DATA WRITTEN IN THE WORK DIRECTORY.


          THE ANALYSIS HAS BEEN COMPLETED



                              ANALYSIS COMPLETE
                              WITH      6 WARNING MESSAGES ON THE DAT FILE
                              AND  ****** WARNING MESSAGES ON THE MSG FILE
                                   ****** WARNINGS ARE FOR NUMERICAL PROBLEMS



     JOB TIME SUMMARY
       USER TIME (SEC)      =     4.86E+04
       SYSTEM TIME (SEC)    =     7.34E+02
       TOTAL CPU TIME (SEC) =     4.93E+04
       WALLCLOCK TIME (SEC) =         7034
