 Abaqus/Standard 2023                  DATE 08-Dec-2024 TIME 19:29:21
 SUMMARY OF JOB INFORMATION:
 STEP  INC ATT SEVERE EQUIL TOTAL  TOTAL      STEP       INC OF       DOF    IF
               DISCON ITERS ITERS  TIME/    TIME/LPF    TIME/LPF    MONITOR RIKS
               ITERS               FREQ
   1     1   1     0     1     1  360.       360.       360.0     
   1     2   1     0     1     1  720.       720.       360.0     
   1     3   1     0     1     1  1.08e+03   1.08e+03   360.0     
   1     4   1     0     1     1  1.44e+03   1.44e+03   360.0     
   1     5   1     0     1     1  1.80e+03   1.80e+03   360.0     
   2     1   1     0     2     2  1.81e+03   6.75       6.750     
   2     2   1     0     1     1  1.81e+03   13.5       6.750     
   2     3   1     0     1     1  1.82e+03   20.2       6.750     
   2     4   1     0     1     1  1.83e+03   27.0       6.750     
   2     5   1     0     1     1  1.83e+03   33.8       6.750     
   2     6   1     0     1     1  1.84e+03   40.5       6.750     
   2     7   1     0     1     1  1.85e+03   47.2       6.750     
   2     8   1     0     1     1  1.85e+03   54.0       6.750     
   2     9   1     0     1     1  1.86e+03   60.8       6.750     
   2    10   1     0     1     1  1.87e+03   67.5       6.750     
   2    11   1     0     1     1  1.87e+03   74.2       6.750     
   2    12   1     0     1     1  1.88e+03   81.0       6.750     
   2    13   1     0     1     1  1.89e+03   87.8       6.750     
   2    14   1     0     1     1  1.89e+03   94.5       6.750     
   2    15   1     0     1     1  1.90e+03   101.       6.750     
   2    16   1     0     1     1  1.91e+03   108.       6.750     
   2    17   1     0     1     1  1.91e+03   115.       6.750     
   2    18   1     0     1     1  1.92e+03   122.       6.750     
   2    19   1     0     1     1  1.93e+03   128.       6.750     
   2    20   1     0     1     1  1.94e+03   135.       6.750     
   2    21   1     0     1     1  1.94e+03   142.       6.750     
   2    22   1     0     1     1  1.95e+03   148.       6.750     
   2    23   1     0     1     1  1.96e+03   155.       6.750     
   2    24   1     0     1     1  1.96e+03   162.       6.750     
   2    25   1     0     1     1  1.97e+03   169.       6.750     
   2    26   1     0     1     1  1.98e+03   176.       6.750     
   2    27   1     0     1     1  1.98e+03   182.       6.750     
   2    28   1     0     1     1  1.99e+03   189.       6.750     
   2    29   1     0     1     1  2.00e+03   196.       6.750     
   2    30   1     0     1     1  2.00e+03   202.       6.750     
   2    31   1     0     1     1  2.01e+03   209.       6.750     
   2    32   1     0     2     2  2.02e+03   216.       6.750     
   2    33   1     0     2     2  2.02e+03   223.       6.750     
   2    34   1     0     2     2  2.03e+03   230.       6.750     
   2    35   1     0     2     2  2.04e+03   236.       6.750     
   2    36   1     0     2     2  2.04e+03   243.       6.750     
   2    37   1     0     2     2  2.05e+03   250.       6.750     
   2    38   1     0     2     2  2.06e+03   256.       6.750     
   2    39   1     0     2     2  2.06e+03   263.       6.750     
   2    40   1     0     3     3  2.07e+03   270.       6.750     
   2    41   1     0     3     3  2.08e+03   277.       6.750     
   2    42   1     0     3     3  2.08e+03   284.       6.750     
   2    43   1     0     3     3  2.09e+03   290.       6.750     
   2    44   1     0     3     3  2.10e+03   297.       6.750     
   2    45   1     0     3     3  2.10e+03   304.       6.750     
   2    46   1     0     3     3  2.11e+03   310.       6.750     
   2    47   1     0     3     3  2.12e+03   317.       6.750     
   2    48   1     0     3     3  2.12e+03   324.       6.750     
   2    49   1     0     3     3  2.13e+03   331.       6.750     
   2    50   1     0     2     2  2.14e+03   338.       6.750     
   2    51   1     0     3     3  2.14e+03   344.       6.750     
   2    52   1     0     2     2  2.15e+03   351.       6.750     
   2    53   1     0     2     2  2.16e+03   358.       6.750     
   2    54   1     0     2     2  2.16e+03   364.       6.750     
   2    55   1     0     2     2  2.17e+03   371.       6.750     
   2    56   1     0     2     2  2.18e+03   378.       6.750     
   2    57   1     0     2     2  2.18e+03   385.       6.750     
   2    58   1     0     2     2  2.19e+03   392.       6.750     
   2    59   1     0     2     2  2.20e+03   398.       6.750     
   2    60   1     0     2     2  2.20e+03   405.       6.750     
   2    61   1     0     2     2  2.21e+03   412.       6.750     
   2    62   1     0     2     2  2.22e+03   418.       6.750     
   2    63   1     0     1     1  2.22e+03   419.       0.5000    
   2    64   1     0     1     1  2.23e+03   425.       6.250     
   2    65   1     0     3     3  2.23e+03   432.       6.750     
   2    66   1     0     3     3  2.24e+03   436.       4.000     
   2    67   1     0     2     2  2.24e+03   439.       2.750     
   2    68   1     0     3     3  2.25e+03   446.       6.750     
   2    69   1     0     3     3  2.25e+03   452.       6.750     
   2    70   1     0     3     3  2.26e+03   459.       6.750     
   2    71   1     0     3     3  2.27e+03   466.       6.750     
   2    72   1     0     3     3  2.27e+03   472.       6.750     
   2    73   1     0     3     3  2.28e+03   479.       6.750     
   2    74   1     0     3     3  2.29e+03   486.       6.750     
   2    75   1     0     3     3  2.29e+03   493.       6.750     
   2    76   1     0     3     3  2.30e+03   500.       6.750     
   2    77   1     0     3     3  2.31e+03   506.       6.750     
   2    78   1     0     3     3  2.31e+03   513.       6.750     
   2    79   1     0     4     4  2.32e+03   520.       6.750     
   2    80   1     0     4     4  2.33e+03   526.       6.750     
   2    81   1     0     4     4  2.33e+03   533.       6.750     
   2    82   1     0     4     4  2.34e+03   540.       6.750     
   2    83   1     0     4     4  2.35e+03   547.       6.750     
   2    84   1     0     4     4  2.35e+03   554.       6.750     
   2    85   1     0     4     4  2.36e+03   560.       6.750     
   2    86   1     0     4     4  2.37e+03   567.       6.750     
   2    87   1     0     4     4  2.37e+03   574.       6.750     
   2    88   1     0     4     4  2.38e+03   580.       6.750     
   2    89   1     0     4     4  2.39e+03   587.       6.750     
   2    90   1     0     4     4  2.39e+03   594.       6.750     
   2    91   1     0     4     4  2.40e+03   601.       6.750     
   2    92   1     0     4     4  2.41e+03   608.       6.750     
   2    93   1     0     4     4  2.41e+03   614.       6.750     
   2    94   1     0     4     4  2.42e+03   621.       6.750     
   2    95   1     0     4     4  2.43e+03   628.       6.750     
   2    96   1     0     4     4  2.43e+03   634.       6.750     
   2    97   1     0     4     4  2.44e+03   641.       6.750     
   2    98   1     0     5     5  2.45e+03   648.       6.750     
   2    99   1     0     5     5  2.45e+03   655.       6.750     
   2   100   1     0     5     5  2.46e+03   662.       6.750     
   2   101   1     0     4     4  2.47e+03   668.       6.750     
   2   102   1     0     5     5  2.48e+03   675.       6.750     
                          
 THE ANALYSIS HAS COMPLETED SUCCESSFULLY
