1

   Abaqus 2023.HF4                                  Date 08-Nov-2024   Time 16:56:48
   For use by AALTO UNIVERSITY under license from Dassault Systemes or its subsidiary.



                         The Abaqus Software is a product of:

                           Dassault Systemes SIMULIA Corp.
                           1301 Atwood Avenue, Suite 101W
                              Johnston, RI 02919, USA
 


                   The Abaqus Software is available only under license
                   from Dassault Systemes or its subsidiary and may be
                   used or reproduced only in accordance with the terms
                   of such license.
 
                          On machine D23-0234 
                          you are authorized to run
                          Abaqus/Explicit until 20-Feb-2025

                          Your site id is: 200000000014764 


 
                    For assistance or any other information you may
                    obtain contact information for your local office
                    from the world wide web at:

                      https://www.3ds.com/products-services/simulia/services-support/

 
                * * * * * * * * * * * * * * * * * * * * * * * * * * * * * * 
                *                                                         * 
                *                   *****************                     * 
                *                   *  N O T I C E  *                     * 
                *                   *****************                     * 
                *                                                         * 
                *                                                         * 
                *                     Abaqus 2023.HF4                     * 
                *                                                         * 
                *       BUILD ID: 2023_07_21-20.45.57 RELr425 183702      * 
                *                                                         * 
                *                                                         * 
                *  Please make sure you are using                         * 
                *  release Abaqus 2023.HF4 manuals                        * 
                *  plus the notes accompanying this release.              * 
                *                                                         * 
                *                                                         * 
                *                                                         * 
                *                                                         * 
                *                                                         * 
                *   This program may not be used for commercial purposes  * 
                *           without payment of a commercial fee.          * 
                *                                                         * 
                * * * * * * * * * * * * * * * * * * * * * * * * * * * * * * 


 



     PROCESSING PART, INSTANCE, AND ASSEMBLY INFORMATION
   *******************************************************


     END PROCESSING PART, INSTANCE, AND ASSEMBLY INFORMATION
   ***********************************************************




     OPTIONS BEING PROCESSED
   ***************************


  *Heading
  *Element, type=C3D8T
  *Elset, elset="ASSEMBLY_ROUND_NOTCHED_SPECIMEN_TEST-1_Outer Surface"
  *Elset, elset=ASSEMBLY_ROUND_NOTCHED_SPECIMEN_TEST-1_TOP
  *Elset, elset=ASSEMBLY_ROUND_NOTCHED_SPECIMEN_TEST-1_WHOLE_PART
  *Elset, elset=ASSEMBLY_ROUND_NOTCHED_SPECIMEN_TEST-1_XSYMM
  *Elset, elset=ASSEMBLY_ROUND_NOTCHED_SPECIMEN_TEST-1_ZSYMM
  *Elset, elset=ASSEMBLY_BOTTOM
  *material, name=MATERIAL-1
  *density
  *depvar
  *usermaterial, constants=9, type=THERMAL, hybridformulation=INCREMENTAL

 ***WARNING: THE HYBRID FORMULATION PARAMETER ON THE *USER MATERIAL OPTION IS 
             IGNORED IN Abaqus/Explicit.
  *usermaterial, constants=4, type=MECHANICAL, hybridformulation=INCREMENTAL

 ***WARNING: THE HYBRID FORMULATION PARAMETER ON THE *USER MATERIAL OPTION IS 
             IGNORED IN Abaqus/Explicit.
  *solidsection, elset=ASSEMBLY_ROUND_NOTCHED_SPECIMEN_TEST-1_WHOLE_PART, material=MATERIAL-1
  *solidsection, elset=ASSEMBLY_ROUND_NOTCHED_SPECIMEN_TEST-1_WHOLE_PART, material=MATERIAL-1
  *boundary
  *boundary
  *boundary, amplitude=AMP-1
  *boundary
  *boundary
  *solidsection, elset=ASSEMBLY_ROUND_NOTCHED_SPECIMEN_TEST-1_WHOLE_PART, material=MATERIAL-1
  *initialconditions, type=TEMPERATURE
  *initialconditions, type=TEMPERATURE
  *elementoutput, directions=YES
  
                               E L E M E N T   Q U A L I T Y  C H E C K S        
  
  
 ***NOTES: DISTORTED ISOPARAMETRIC ELEMENTS: ANGLE BETWEEN ISOPARAMETRIC LINES 
           IS LESS THAN 45 DEGREES OR GREATER THAN 135 DEGREES.
  
           TETRAHEDRAL QUALITY MEASURE: VOLUME OF TETRAHEDRON DIVIDED BY THE 
           VOLUME OF EQUILATERAL TETRAHEDRON WITH SAME CIRCUMSPHERE RADIUS; 
           0 FOR DEGENERATE TETRAHEDRON AND 1 FOR EQUILATERIAL TETRAHEDRON. IT 
           IS RECOMMENDED THAT THE TETRAHEDRAL QUALITY MEASURE BE GREATER THAN 
           0.02, THE MIN INTERIOR (DIHEDRAL) ANGLE BE GREATER THAN 10 DEGREES, 
           AND THE MAX INTERIOR (DIHEDRAL) ANGLE BE LESS THAN 160 DEGREES. 
  
           MODIFIED TETRAHEDRAL QUALITY MEASURE: ANGLES BETWEEN THE TWO LINE 
           SEGMENTS ON EACH EDGE; THE EDGES OF MODIFIED TETRAHEDRAL SHOULD BE 
           AS STRAIGHT AS POSSIBLE. IT IS RECOMMENDED THAT THE ANGLE BETWEEN 
           THE TWO LINE SEGMENTS ON EACH EDGE IS BETWEEN 160 AND 180 DEGREES. 
  
           TRIANGULAR QUALITY MEASURE: AREA OF TRIANGLE DIVIDED BY THE AREA OF 
           EQUILATERAL TRIANGLE WITH SAME CIRCUMCIRCLE RADIUS; 0 FOR DEGENERATE 
           TRIANGLE AND 1 FOR EQUILATERAL TRIANGLE. IT IS RECOMMENDED THAT THE
           TRIANGULAR QUALITY MEASURE BE GREATER THAN 0.01, THE MIN INTERIOR 
           ANGLE BE GREATER THAN 10 DEGREES, AND THE MAX INTERIOR ANGLE BE LESS 
           THAN 160 DEGREES. 
  
           NODAL ADJUSTMENTS ARISING FROM CONTACT INTERACTIONS AND/OR TIE 
           CONSTRAINTS CAN CAUSE SEVERE ELEMENT DISTORTION. IT MAY BE NECESSARY 
           TO REMESH IN ORDER TO REDUCE THE AMOUNT OF ADJUSTMENT. 

 ***WARNING: 19325 elements are distorted. Either the isoparametric angles are 
             out of the suggested limits or the triangular or tetrahedral 
             quality measure is bad. The elements have been identified in 
             element set WarnElemDistorted.
  
 --------------------------------------------------------------------------------
 Distorted isoparametric elements
  
                 Element                  Min/max angle   Adjusted nodes 
 --------------------------------------- ---------------- -------------- 
         ROUND_NOTCHED_SPECIMEN_TEST-1.1          41.0131       NO       
         ROUND_NOTCHED_SPECIMEN_TEST-1.2          30.1332       NO       
         ROUND_NOTCHED_SPECIMEN_TEST-1.3          30.1275       NO       
         ROUND_NOTCHED_SPECIMEN_TEST-1.4          31.6076       NO       
         ROUND_NOTCHED_SPECIMEN_TEST-1.5          30.1285       NO       
         ROUND_NOTCHED_SPECIMEN_TEST-1.6           30.289       NO       
         ROUND_NOTCHED_SPECIMEN_TEST-1.7          30.1109       NO       
         ROUND_NOTCHED_SPECIMEN_TEST-1.8          31.1001       NO       
         ROUND_NOTCHED_SPECIMEN_TEST-1.9          31.5748       NO       
        ROUND_NOTCHED_SPECIMEN_TEST-1.10          29.8194       NO       
        ROUND_NOTCHED_SPECIMEN_TEST-1.11          29.7461       NO       
        ROUND_NOTCHED_SPECIMEN_TEST-1.12          30.7699       NO       
        ROUND_NOTCHED_SPECIMEN_TEST-1.13          31.0431       NO       
        ROUND_NOTCHED_SPECIMEN_TEST-1.14          38.7764       NO       
        ROUND_NOTCHED_SPECIMEN_TEST-1.15          30.6262       NO       
        ROUND_NOTCHED_SPECIMEN_TEST-1.16          29.9362       NO       
        ROUND_NOTCHED_SPECIMEN_TEST-1.17           37.281       NO       
        ROUND_NOTCHED_SPECIMEN_TEST-1.18          29.9872       NO       
        ROUND_NOTCHED_SPECIMEN_TEST-1.19          30.4298       NO       
        ROUND_NOTCHED_SPECIMEN_TEST-1.20          33.3899       NO       
        ROUND_NOTCHED_SPECIMEN_TEST-1.21          30.4336       NO       
        ROUND_NOTCHED_SPECIMEN_TEST-1.22            30.72       NO       
        ROUND_NOTCHED_SPECIMEN_TEST-1.23          31.7438       NO       
        ROUND_NOTCHED_SPECIMEN_TEST-1.24          31.9237       NO       
        ROUND_NOTCHED_SPECIMEN_TEST-1.25           31.401       NO       
        ROUND_NOTCHED_SPECIMEN_TEST-1.26          31.2043       NO       
        ROUND_NOTCHED_SPECIMEN_TEST-1.27          30.9312       NO       
        ROUND_NOTCHED_SPECIMEN_TEST-1.28           30.289       NO       
        ROUND_NOTCHED_SPECIMEN_TEST-1.29          30.1734       NO       
        ROUND_NOTCHED_SPECIMEN_TEST-1.30          30.0039       NO       
        ROUND_NOTCHED_SPECIMEN_TEST-1.31          30.7965       NO       
        ROUND_NOTCHED_SPECIMEN_TEST-1.32          30.1459       NO       
        ROUND_NOTCHED_SPECIMEN_TEST-1.33          31.0971       NO       
        ROUND_NOTCHED_SPECIMEN_TEST-1.34          30.2323       NO       
        ROUND_NOTCHED_SPECIMEN_TEST-1.35          30.8509       NO       
        ROUND_NOTCHED_SPECIMEN_TEST-1.36          36.4105       NO       
        ROUND_NOTCHED_SPECIMEN_TEST-1.37          30.0971       NO       
        ROUND_NOTCHED_SPECIMEN_TEST-1.38          30.3998       NO       
        ROUND_NOTCHED_SPECIMEN_TEST-1.39          30.0955       NO       
        ROUND_NOTCHED_SPECIMEN_TEST-1.40          30.9556       NO       
        ROUND_NOTCHED_SPECIMEN_TEST-1.41          30.1474       NO       
        ROUND_NOTCHED_SPECIMEN_TEST-1.42          37.7866       NO       
        ROUND_NOTCHED_SPECIMEN_TEST-1.43          31.1487       NO       
        ROUND_NOTCHED_SPECIMEN_TEST-1.44          30.0712       NO       
        ROUND_NOTCHED_SPECIMEN_TEST-1.45          30.8914       NO       
        ROUND_NOTCHED_SPECIMEN_TEST-1.46          30.0068       NO       
        ROUND_NOTCHED_SPECIMEN_TEST-1.48          31.0577       NO       
        ROUND_NOTCHED_SPECIMEN_TEST-1.49          31.1053       NO       
        ROUND_NOTCHED_SPECIMEN_TEST-1.50          29.8937       NO       
        ROUND_NOTCHED_SPECIMEN_TEST-1.51          29.8738       NO       
        ROUND_NOTCHED_SPECIMEN_TEST-1.52          39.7742       NO       
        ROUND_NOTCHED_SPECIMEN_TEST-1.53          29.8048       NO       
        ROUND_NOTCHED_SPECIMEN_TEST-1.54          31.0145       NO       
        ROUND_NOTCHED_SPECIMEN_TEST-1.55          29.7512       NO       
        ROUND_NOTCHED_SPECIMEN_TEST-1.56           31.425       NO       
        ROUND_NOTCHED_SPECIMEN_TEST-1.57           30.866       NO       
        ROUND_NOTCHED_SPECIMEN_TEST-1.58           29.751       NO       
        ROUND_NOTCHED_SPECIMEN_TEST-1.59          30.7209       NO       
        ROUND_NOTCHED_SPECIMEN_TEST-1.60          29.7757       NO       
        ROUND_NOTCHED_SPECIMEN_TEST-1.61          29.8203       NO       
        ROUND_NOTCHED_SPECIMEN_TEST-1.62          29.8445       NO       
        ROUND_NOTCHED_SPECIMEN_TEST-1.63          29.8674       NO       
        ROUND_NOTCHED_SPECIMEN_TEST-1.64          29.8896       NO       
        ROUND_NOTCHED_SPECIMEN_TEST-1.65          29.9151       NO       
        ROUND_NOTCHED_SPECIMEN_TEST-1.66          29.9591       NO       
        ROUND_NOTCHED_SPECIMEN_TEST-1.67          31.3408       NO       
        ROUND_NOTCHED_SPECIMEN_TEST-1.68          30.0137       NO       
        ROUND_NOTCHED_SPECIMEN_TEST-1.69          30.0672       NO       
        ROUND_NOTCHED_SPECIMEN_TEST-1.70          30.1019       NO       
        ROUND_NOTCHED_SPECIMEN_TEST-1.71          30.1494       NO       
        ROUND_NOTCHED_SPECIMEN_TEST-1.72          30.2073       NO       
        ROUND_NOTCHED_SPECIMEN_TEST-1.73          30.2772       NO       
        ROUND_NOTCHED_SPECIMEN_TEST-1.74          30.3552       NO       
        ROUND_NOTCHED_SPECIMEN_TEST-1.75          30.4604       NO       
        ROUND_NOTCHED_SPECIMEN_TEST-1.76          33.2826       NO       
        ROUND_NOTCHED_SPECIMEN_TEST-1.77           30.841       NO       
        ROUND_NOTCHED_SPECIMEN_TEST-1.78          30.7707       NO       
        ROUND_NOTCHED_SPECIMEN_TEST-1.79          30.6867       NO       
        ROUND_NOTCHED_SPECIMEN_TEST-1.80          30.4738       NO       
        ROUND_NOTCHED_SPECIMEN_TEST-1.81          30.3758       NO       
        ROUND_NOTCHED_SPECIMEN_TEST-1.82          31.6227       NO       
        ROUND_NOTCHED_SPECIMEN_TEST-1.84          29.8368       NO       
        ROUND_NOTCHED_SPECIMEN_TEST-1.85          29.7889       NO       
        ROUND_NOTCHED_SPECIMEN_TEST-1.86          30.9282       NO       
        ROUND_NOTCHED_SPECIMEN_TEST-1.87          29.7467       NO       
        ROUND_NOTCHED_SPECIMEN_TEST-1.88          33.8681       NO       
        ROUND_NOTCHED_SPECIMEN_TEST-1.89          32.6801       NO       
        ROUND_NOTCHED_SPECIMEN_TEST-1.90          32.8471       NO       
        ROUND_NOTCHED_SPECIMEN_TEST-1.91          37.4611       NO       
        ROUND_NOTCHED_SPECIMEN_TEST-1.93          38.7736       NO       
       ROUND_NOTCHED_SPECIMEN_TEST-1.104          29.7595       NO       
       ROUND_NOTCHED_SPECIMEN_TEST-1.105          29.7722       NO       
       ROUND_NOTCHED_SPECIMEN_TEST-1.106          30.0848       NO       
       ROUND_NOTCHED_SPECIMEN_TEST-1.107          36.1563       NO       
       ROUND_NOTCHED_SPECIMEN_TEST-1.108          40.1931       NO       
       ROUND_NOTCHED_SPECIMEN_TEST-1.109          30.5085       NO       
       ROUND_NOTCHED_SPECIMEN_TEST-1.110          29.8528       NO       
       ROUND_NOTCHED_SPECIMEN_TEST-1.111          31.0869       NO       
       ROUND_NOTCHED_SPECIMEN_TEST-1.112           29.795       NO       
       ROUND_NOTCHED_SPECIMEN_TEST-1.113          30.8449       NO       
       ROUND_NOTCHED_SPECIMEN_TEST-1.114          29.9197       NO       
       ROUND_NOTCHED_SPECIMEN_TEST-1.115          43.7648       NO       
       ROUND_NOTCHED_SPECIMEN_TEST-1.116          34.0928       NO       
       ROUND_NOTCHED_SPECIMEN_TEST-1.117          34.2237       NO       
       ROUND_NOTCHED_SPECIMEN_TEST-1.118          30.5724       NO       
       ROUND_NOTCHED_SPECIMEN_TEST-1.119          30.8284       NO       
       ROUND_NOTCHED_SPECIMEN_TEST-1.120          30.7845       NO       
       ROUND_NOTCHED_SPECIMEN_TEST-1.121          31.3723       NO       
       ROUND_NOTCHED_SPECIMEN_TEST-1.122          30.6632       NO       
       ROUND_NOTCHED_SPECIMEN_TEST-1.123          30.5804       NO       
       ROUND_NOTCHED_SPECIMEN_TEST-1.124          30.5997       NO       
       ROUND_NOTCHED_SPECIMEN_TEST-1.125          31.0389       NO       
       ROUND_NOTCHED_SPECIMEN_TEST-1.126          30.0408       NO       
       ROUND_NOTCHED_SPECIMEN_TEST-1.127          31.7836       NO       
       ROUND_NOTCHED_SPECIMEN_TEST-1.128          39.9234       NO       
       ROUND_NOTCHED_SPECIMEN_TEST-1.129          30.0437       NO       
       ROUND_NOTCHED_SPECIMEN_TEST-1.130          30.7046       NO       
       ROUND_NOTCHED_SPECIMEN_TEST-1.131          34.9588       NO       
       ROUND_NOTCHED_SPECIMEN_TEST-1.132          31.5855       NO       
       ROUND_NOTCHED_SPECIMEN_TEST-1.133          34.4422       NO       
       ROUND_NOTCHED_SPECIMEN_TEST-1.134          30.5394       NO       
       ROUND_NOTCHED_SPECIMEN_TEST-1.135          29.7612       NO       
       ROUND_NOTCHED_SPECIMEN_TEST-1.136          31.4674       NO       
       ROUND_NOTCHED_SPECIMEN_TEST-1.137          31.6137       NO       
       ROUND_NOTCHED_SPECIMEN_TEST-1.138          29.9475       NO       
       ROUND_NOTCHED_SPECIMEN_TEST-1.139          30.1143       NO       
       ROUND_NOTCHED_SPECIMEN_TEST-1.140          30.0978       NO       
       ROUND_NOTCHED_SPECIMEN_TEST-1.141          30.7873       NO       
       ROUND_NOTCHED_SPECIMEN_TEST-1.142           31.102       NO       
       ROUND_NOTCHED_SPECIMEN_TEST-1.143          30.5896       NO       
       ROUND_NOTCHED_SPECIMEN_TEST-1.144          29.7471       NO       
       ROUND_NOTCHED_SPECIMEN_TEST-1.145          31.4251       NO       
       ROUND_NOTCHED_SPECIMEN_TEST-1.146          31.1964       NO       
       ROUND_NOTCHED_SPECIMEN_TEST-1.147          30.1052       NO       
       ROUND_NOTCHED_SPECIMEN_TEST-1.148          29.9809       NO       
       ROUND_NOTCHED_SPECIMEN_TEST-1.149          31.1939       NO       
       ROUND_NOTCHED_SPECIMEN_TEST-1.150          29.8364       NO       
       ROUND_NOTCHED_SPECIMEN_TEST-1.151          29.8403       NO       
       ROUND_NOTCHED_SPECIMEN_TEST-1.152          30.5526       NO       
       ROUND_NOTCHED_SPECIMEN_TEST-1.153          30.6521       NO       
       ROUND_NOTCHED_SPECIMEN_TEST-1.154          29.8102       NO       
       ROUND_NOTCHED_SPECIMEN_TEST-1.155          30.8873       NO       
       ROUND_NOTCHED_SPECIMEN_TEST-1.156          29.9745       NO       
       ROUND_NOTCHED_SPECIMEN_TEST-1.157          31.4467       NO       
       ROUND_NOTCHED_SPECIMEN_TEST-1.158          30.8008       NO       
       ROUND_NOTCHED_SPECIMEN_TEST-1.159          30.8979       NO       
       ROUND_NOTCHED_SPECIMEN_TEST-1.160          30.9855       NO       
       ROUND_NOTCHED_SPECIMEN_TEST-1.161          30.4976       NO       
       ROUND_NOTCHED_SPECIMEN_TEST-1.162          31.3873       NO       
       ROUND_NOTCHED_SPECIMEN_TEST-1.163          31.0313       NO       
       ROUND_NOTCHED_SPECIMEN_TEST-1.164          31.0673       NO       
       ROUND_NOTCHED_SPECIMEN_TEST-1.165          30.7431       NO       
       ROUND_NOTCHED_SPECIMEN_TEST-1.166          31.0979       NO       
       ROUND_NOTCHED_SPECIMEN_TEST-1.168          31.2763       NO       
       ROUND_NOTCHED_SPECIMEN_TEST-1.169           42.836       NO       
       ROUND_NOTCHED_SPECIMEN_TEST-1.170          31.0839       NO       
       ROUND_NOTCHED_SPECIMEN_TEST-1.171          38.5308       NO       
       ROUND_NOTCHED_SPECIMEN_TEST-1.172          30.4815       NO       
       ROUND_NOTCHED_SPECIMEN_TEST-1.173          30.7798       NO       
       ROUND_NOTCHED_SPECIMEN_TEST-1.174          30.6759       NO       
       ROUND_NOTCHED_SPECIMEN_TEST-1.175          30.4336       NO       
       ROUND_NOTCHED_SPECIMEN_TEST-1.176          30.4532       NO       
       ROUND_NOTCHED_SPECIMEN_TEST-1.177           42.366       NO       
       ROUND_NOTCHED_SPECIMEN_TEST-1.178          30.8337       NO       
       ROUND_NOTCHED_SPECIMEN_TEST-1.179          32.6267       NO       
       ROUND_NOTCHED_SPECIMEN_TEST-1.180           31.682       NO       
       ROUND_NOTCHED_SPECIMEN_TEST-1.181          31.0416       NO       
       ROUND_NOTCHED_SPECIMEN_TEST-1.182           31.645       NO       
       ROUND_NOTCHED_SPECIMEN_TEST-1.183          31.6706       NO       
       ROUND_NOTCHED_SPECIMEN_TEST-1.184             31.5       NO       
       ROUND_NOTCHED_SPECIMEN_TEST-1.185          30.9577       NO       
       ROUND_NOTCHED_SPECIMEN_TEST-1.186          30.5694       NO       
       ROUND_NOTCHED_SPECIMEN_TEST-1.187          37.7696       NO       
       ROUND_NOTCHED_SPECIMEN_TEST-1.188          31.2104       NO       
       ROUND_NOTCHED_SPECIMEN_TEST-1.189           31.427       NO       
       ROUND_NOTCHED_SPECIMEN_TEST-1.190          33.1697       NO       
       ROUND_NOTCHED_SPECIMEN_TEST-1.191          31.0734       NO       
       ROUND_NOTCHED_SPECIMEN_TEST-1.192          31.6233       NO       
       ROUND_NOTCHED_SPECIMEN_TEST-1.193           30.693       NO       
       ROUND_NOTCHED_SPECIMEN_TEST-1.194          30.2256       NO       
       ROUND_NOTCHED_SPECIMEN_TEST-1.195          33.9952       NO       
       ROUND_NOTCHED_SPECIMEN_TEST-1.196          31.4417       NO       
       ROUND_NOTCHED_SPECIMEN_TEST-1.197          31.0918       NO       
       ROUND_NOTCHED_SPECIMEN_TEST-1.198          31.5361       NO       
       ROUND_NOTCHED_SPECIMEN_TEST-1.199          34.0783       NO       
       ROUND_NOTCHED_SPECIMEN_TEST-1.200          31.2507       NO       
       ROUND_NOTCHED_SPECIMEN_TEST-1.201          30.4571       NO       
       ROUND_NOTCHED_SPECIMEN_TEST-1.202          35.3116       NO       
       ROUND_NOTCHED_SPECIMEN_TEST-1.203          30.6989       NO       
       ROUND_NOTCHED_SPECIMEN_TEST-1.204          31.7247       NO       
       ROUND_NOTCHED_SPECIMEN_TEST-1.205          31.5153       NO       
       ROUND_NOTCHED_SPECIMEN_TEST-1.206          30.9537       NO       
       ROUND_NOTCHED_SPECIMEN_TEST-1.207            31.18       NO       
       ROUND_NOTCHED_SPECIMEN_TEST-1.208          30.6765       NO       
       ROUND_NOTCHED_SPECIMEN_TEST-1.209          33.0865       NO       
       ROUND_NOTCHED_SPECIMEN_TEST-1.210          31.5646       NO       
       ROUND_NOTCHED_SPECIMEN_TEST-1.211          30.9919       NO       
       ROUND_NOTCHED_SPECIMEN_TEST-1.212          31.4632       NO       
       ROUND_NOTCHED_SPECIMEN_TEST-1.213          31.1601       NO       
       ROUND_NOTCHED_SPECIMEN_TEST-1.214          30.9193       NO       
       ROUND_NOTCHED_SPECIMEN_TEST-1.215          31.6252       NO       
       ROUND_NOTCHED_SPECIMEN_TEST-1.216          31.0822       NO       
       ROUND_NOTCHED_SPECIMEN_TEST-1.217          36.3274       NO       
       ROUND_NOTCHED_SPECIMEN_TEST-1.218          32.0691       NO       
       ROUND_NOTCHED_SPECIMEN_TEST-1.219          30.8779       NO       
       ROUND_NOTCHED_SPECIMEN_TEST-1.220          32.4421       NO       
       ROUND_NOTCHED_SPECIMEN_TEST-1.221          37.3201       NO       
       ROUND_NOTCHED_SPECIMEN_TEST-1.222          32.8679       NO       
       ROUND_NOTCHED_SPECIMEN_TEST-1.223          31.2489       NO       
       ROUND_NOTCHED_SPECIMEN_TEST-1.224          31.6212       NO       
       ROUND_NOTCHED_SPECIMEN_TEST-1.225          31.0716       NO       
       ROUND_NOTCHED_SPECIMEN_TEST-1.226          32.4275       NO       
       ROUND_NOTCHED_SPECIMEN_TEST-1.227          32.8312       NO       
       ROUND_NOTCHED_SPECIMEN_TEST-1.228          32.2291       NO       
       ROUND_NOTCHED_SPECIMEN_TEST-1.229          35.1417       NO       
       ROUND_NOTCHED_SPECIMEN_TEST-1.230          31.3515       NO       
       ROUND_NOTCHED_SPECIMEN_TEST-1.231          39.3083       NO       
       ROUND_NOTCHED_SPECIMEN_TEST-1.232          38.4839       NO       
       ROUND_NOTCHED_SPECIMEN_TEST-1.233          31.8143       NO       
       ROUND_NOTCHED_SPECIMEN_TEST-1.234          31.6832       NO       
       ROUND_NOTCHED_SPECIMEN_TEST-1.235          35.5493       NO       
       ROUND_NOTCHED_SPECIMEN_TEST-1.236          33.9323       NO       
       ROUND_NOTCHED_SPECIMEN_TEST-1.237          34.6884       NO       
       ROUND_NOTCHED_SPECIMEN_TEST-1.238          33.7153       NO       
       ROUND_NOTCHED_SPECIMEN_TEST-1.239          37.8174       NO       
       ROUND_NOTCHED_SPECIMEN_TEST-1.240          34.7052       NO       
       ROUND_NOTCHED_SPECIMEN_TEST-1.241          31.7305       NO       
       ROUND_NOTCHED_SPECIMEN_TEST-1.242          31.9577       NO       
       ROUND_NOTCHED_SPECIMEN_TEST-1.243          31.0834       NO       
       ROUND_NOTCHED_SPECIMEN_TEST-1.244           32.072       NO       
       ROUND_NOTCHED_SPECIMEN_TEST-1.245            31.89       NO       
       ROUND_NOTCHED_SPECIMEN_TEST-1.246          30.8656       NO       
       ROUND_NOTCHED_SPECIMEN_TEST-1.247          36.1336       NO       
       ROUND_NOTCHED_SPECIMEN_TEST-1.248           42.971       NO       
       ROUND_NOTCHED_SPECIMEN_TEST-1.249          35.5602       NO       
       ROUND_NOTCHED_SPECIMEN_TEST-1.250          30.8947       NO       
       ROUND_NOTCHED_SPECIMEN_TEST-1.251          37.4847       NO       
       ROUND_NOTCHED_SPECIMEN_TEST-1.252          30.9977       NO       
       ROUND_NOTCHED_SPECIMEN_TEST-1.253          31.4854       NO       
       ROUND_NOTCHED_SPECIMEN_TEST-1.254          32.4475       NO       
       ROUND_NOTCHED_SPECIMEN_TEST-1.255            33.35       NO       
       ROUND_NOTCHED_SPECIMEN_TEST-1.256           32.127       NO       
       ROUND_NOTCHED_SPECIMEN_TEST-1.257          34.8234       NO       
       ROUND_NOTCHED_SPECIMEN_TEST-1.258          31.1241       NO       
       ROUND_NOTCHED_SPECIMEN_TEST-1.259          31.5233       NO       
       ROUND_NOTCHED_SPECIMEN_TEST-1.260           31.226       NO       
       ROUND_NOTCHED_SPECIMEN_TEST-1.261          41.8254       NO       
       ROUND_NOTCHED_SPECIMEN_TEST-1.262          31.5792       NO       
       ROUND_NOTCHED_SPECIMEN_TEST-1.263          30.9526       NO       
       ROUND_NOTCHED_SPECIMEN_TEST-1.264          31.6288       NO       
       ROUND_NOTCHED_SPECIMEN_TEST-1.265          33.2404       NO       
       ROUND_NOTCHED_SPECIMEN_TEST-1.266          31.6344       NO       
       ROUND_NOTCHED_SPECIMEN_TEST-1.267          32.5238       NO       
       ROUND_NOTCHED_SPECIMEN_TEST-1.268          32.2031       NO       
       ROUND_NOTCHED_SPECIMEN_TEST-1.269          32.2258       NO       
       ROUND_NOTCHED_SPECIMEN_TEST-1.270          31.6752       NO       
       ROUND_NOTCHED_SPECIMEN_TEST-1.271          32.2795       NO       
       ROUND_NOTCHED_SPECIMEN_TEST-1.272          32.2033       NO       
       ROUND_NOTCHED_SPECIMEN_TEST-1.273          32.1728       NO       
       ROUND_NOTCHED_SPECIMEN_TEST-1.274          32.7658       NO       
       ROUND_NOTCHED_SPECIMEN_TEST-1.275          31.6591       NO       
       ROUND_NOTCHED_SPECIMEN_TEST-1.276          32.1789       NO       
       ROUND_NOTCHED_SPECIMEN_TEST-1.277          32.7222       NO       
       ROUND_NOTCHED_SPECIMEN_TEST-1.278          31.6444       NO       
       ROUND_NOTCHED_SPECIMEN_TEST-1.279          32.1885       NO       
       ROUND_NOTCHED_SPECIMEN_TEST-1.280          32.2247       NO       
       ROUND_NOTCHED_SPECIMEN_TEST-1.281          32.6746       NO       
       ROUND_NOTCHED_SPECIMEN_TEST-1.282          31.3501       NO       
       ROUND_NOTCHED_SPECIMEN_TEST-1.283          32.0669       NO       
       ROUND_NOTCHED_SPECIMEN_TEST-1.284          33.1947       NO       
       ROUND_NOTCHED_SPECIMEN_TEST-1.285          32.0183       NO       
       ROUND_NOTCHED_SPECIMEN_TEST-1.286          31.8801       NO       
       ROUND_NOTCHED_SPECIMEN_TEST-1.287          31.3127       NO       
       ROUND_NOTCHED_SPECIMEN_TEST-1.288          31.9699       NO       
       ROUND_NOTCHED_SPECIMEN_TEST-1.289           32.577       NO       
       ROUND_NOTCHED_SPECIMEN_TEST-1.290          31.2777       NO       
       ROUND_NOTCHED_SPECIMEN_TEST-1.291          31.9242       NO       
       ROUND_NOTCHED_SPECIMEN_TEST-1.292          31.8488       NO       
       ROUND_NOTCHED_SPECIMEN_TEST-1.293          30.9501       NO       
       ROUND_NOTCHED_SPECIMEN_TEST-1.294          33.3609       NO       
       ROUND_NOTCHED_SPECIMEN_TEST-1.295            30.75       NO       
       ROUND_NOTCHED_SPECIMEN_TEST-1.296          32.5278       NO       
       ROUND_NOTCHED_SPECIMEN_TEST-1.297          32.1828       NO       
       ROUND_NOTCHED_SPECIMEN_TEST-1.298          32.9909       NO       
       ROUND_NOTCHED_SPECIMEN_TEST-1.299          44.0629       NO       
       ROUND_NOTCHED_SPECIMEN_TEST-1.300          35.1063       NO       
       ROUND_NOTCHED_SPECIMEN_TEST-1.301          32.3911       NO       
       ROUND_NOTCHED_SPECIMEN_TEST-1.302          36.4254       NO       
       ROUND_NOTCHED_SPECIMEN_TEST-1.303          42.8784       NO       
       ROUND_NOTCHED_SPECIMEN_TEST-1.304           33.606       NO       
       ROUND_NOTCHED_SPECIMEN_TEST-1.305          39.3723       NO       
       ROUND_NOTCHED_SPECIMEN_TEST-1.306           41.127       NO       
       ROUND_NOTCHED_SPECIMEN_TEST-1.307          31.6425       NO       
       ROUND_NOTCHED_SPECIMEN_TEST-1.308          32.2133       NO       
       ROUND_NOTCHED_SPECIMEN_TEST-1.309          32.1754       NO       
       ROUND_NOTCHED_SPECIMEN_TEST-1.310          32.1748       NO       
       ROUND_NOTCHED_SPECIMEN_TEST-1.311          44.8605       NO       
       ROUND_NOTCHED_SPECIMEN_TEST-1.312          32.2426       NO       
       ROUND_NOTCHED_SPECIMEN_TEST-1.313          43.2481       NO       
       ROUND_NOTCHED_SPECIMEN_TEST-1.314           35.332       NO       
       ROUND_NOTCHED_SPECIMEN_TEST-1.315          35.4743       NO       
       ROUND_NOTCHED_SPECIMEN_TEST-1.316          34.2536       NO       
       ROUND_NOTCHED_SPECIMEN_TEST-1.317          32.2841       NO       
       ROUND_NOTCHED_SPECIMEN_TEST-1.318          35.4919       NO       
       ROUND_NOTCHED_SPECIMEN_TEST-1.319          32.7063       NO       
       ROUND_NOTCHED_SPECIMEN_TEST-1.320          31.3973       NO       
       ROUND_NOTCHED_SPECIMEN_TEST-1.321           38.381       NO       
       ROUND_NOTCHED_SPECIMEN_TEST-1.322          31.8587       NO       
       ROUND_NOTCHED_SPECIMEN_TEST-1.323          31.2364       NO       
       ROUND_NOTCHED_SPECIMEN_TEST-1.324          41.8306       NO       
       ROUND_NOTCHED_SPECIMEN_TEST-1.325          39.3408       NO       
       ROUND_NOTCHED_SPECIMEN_TEST-1.326          32.8477       NO       
       ROUND_NOTCHED_SPECIMEN_TEST-1.327           32.198       NO       
       ROUND_NOTCHED_SPECIMEN_TEST-1.328          32.1826       NO       
       ROUND_NOTCHED_SPECIMEN_TEST-1.329           31.582       NO       
       ROUND_NOTCHED_SPECIMEN_TEST-1.330          31.6592       NO       
       ROUND_NOTCHED_SPECIMEN_TEST-1.331          36.6021       NO       
       ROUND_NOTCHED_SPECIMEN_TEST-1.332          31.6797       NO       
       ROUND_NOTCHED_SPECIMEN_TEST-1.333          32.5677       NO       
       ROUND_NOTCHED_SPECIMEN_TEST-1.334          39.8139       NO       
       ROUND_NOTCHED_SPECIMEN_TEST-1.335           31.708       NO       
       ROUND_NOTCHED_SPECIMEN_TEST-1.336          32.0857       NO       
       ROUND_NOTCHED_SPECIMEN_TEST-1.337          31.7183       NO       
       ROUND_NOTCHED_SPECIMEN_TEST-1.338          39.1863       NO       
       ROUND_NOTCHED_SPECIMEN_TEST-1.339          32.9682       NO       
       ROUND_NOTCHED_SPECIMEN_TEST-1.340          32.0873       NO       
       ROUND_NOTCHED_SPECIMEN_TEST-1.341          34.5311       NO       
       ROUND_NOTCHED_SPECIMEN_TEST-1.342          31.7237       NO       
       ROUND_NOTCHED_SPECIMEN_TEST-1.343          32.8268       NO       
       ROUND_NOTCHED_SPECIMEN_TEST-1.344          32.8954       NO       
       ROUND_NOTCHED_SPECIMEN_TEST-1.345          33.3689       NO       
       ROUND_NOTCHED_SPECIMEN_TEST-1.346          32.1145       NO       
       ROUND_NOTCHED_SPECIMEN_TEST-1.347           32.161       NO       
       ROUND_NOTCHED_SPECIMEN_TEST-1.348          31.7368       NO       
       ROUND_NOTCHED_SPECIMEN_TEST-1.349          32.7225       NO       
       ROUND_NOTCHED_SPECIMEN_TEST-1.350           32.247       NO       
       ROUND_NOTCHED_SPECIMEN_TEST-1.351          32.7612       NO       
       ROUND_NOTCHED_SPECIMEN_TEST-1.352          32.7557       NO       
       ROUND_NOTCHED_SPECIMEN_TEST-1.353           32.944       NO       
       ROUND_NOTCHED_SPECIMEN_TEST-1.354          32.2821       NO       
       ROUND_NOTCHED_SPECIMEN_TEST-1.355          32.3301       NO       
       ROUND_NOTCHED_SPECIMEN_TEST-1.356           40.647       NO       
       ROUND_NOTCHED_SPECIMEN_TEST-1.357          31.8369       NO       
       ROUND_NOTCHED_SPECIMEN_TEST-1.358          31.7638       NO       
       ROUND_NOTCHED_SPECIMEN_TEST-1.359          32.4743       NO       
       ROUND_NOTCHED_SPECIMEN_TEST-1.360          33.0753       NO       
       ROUND_NOTCHED_SPECIMEN_TEST-1.361          31.7981       NO       
       ROUND_NOTCHED_SPECIMEN_TEST-1.363          32.3763       NO       
       ROUND_NOTCHED_SPECIMEN_TEST-1.364          32.9137       NO       
       ROUND_NOTCHED_SPECIMEN_TEST-1.365          32.8217       NO       
       ROUND_NOTCHED_SPECIMEN_TEST-1.367          31.9699       NO       
       ROUND_NOTCHED_SPECIMEN_TEST-1.368          32.2241       NO       
       ROUND_NOTCHED_SPECIMEN_TEST-1.369          32.8269       NO       
       ROUND_NOTCHED_SPECIMEN_TEST-1.370          32.0169       NO       
       ROUND_NOTCHED_SPECIMEN_TEST-1.371          32.9579       NO       
       ROUND_NOTCHED_SPECIMEN_TEST-1.372          35.0414       NO       
       ROUND_NOTCHED_SPECIMEN_TEST-1.373          37.2778       NO       
       ROUND_NOTCHED_SPECIMEN_TEST-1.374          34.3473       NO       
       ROUND_NOTCHED_SPECIMEN_TEST-1.375          37.0739       NO       
       ROUND_NOTCHED_SPECIMEN_TEST-1.376          37.8319       NO       
       ROUND_NOTCHED_SPECIMEN_TEST-1.377          40.0836       NO       
       ROUND_NOTCHED_SPECIMEN_TEST-1.378          41.3367       NO       
       ROUND_NOTCHED_SPECIMEN_TEST-1.379          32.8093       NO       
       ROUND_NOTCHED_SPECIMEN_TEST-1.380            36.57       NO       
       ROUND_NOTCHED_SPECIMEN_TEST-1.383          40.8473       NO       
       ROUND_NOTCHED_SPECIMEN_TEST-1.384          32.4942       NO       
       ROUND_NOTCHED_SPECIMEN_TEST-1.385          38.7676       NO       
       ROUND_NOTCHED_SPECIMEN_TEST-1.386          37.8555       NO       
       ROUND_NOTCHED_SPECIMEN_TEST-1.387          33.1728       NO       
       ROUND_NOTCHED_SPECIMEN_TEST-1.388          31.8984       NO       
       ROUND_NOTCHED_SPECIMEN_TEST-1.389          38.2257       NO       
       ROUND_NOTCHED_SPECIMEN_TEST-1.390          32.7517       NO       
       ROUND_NOTCHED_SPECIMEN_TEST-1.391          33.0532       NO       
       ROUND_NOTCHED_SPECIMEN_TEST-1.392          42.6944       NO       
       ROUND_NOTCHED_SPECIMEN_TEST-1.393          32.2111       NO       
       ROUND_NOTCHED_SPECIMEN_TEST-1.394          35.7088       NO       
       ROUND_NOTCHED_SPECIMEN_TEST-1.395          44.9267       NO       
       ROUND_NOTCHED_SPECIMEN_TEST-1.396          33.7244       NO       
       ROUND_NOTCHED_SPECIMEN_TEST-1.398          34.4185       NO       
       ROUND_NOTCHED_SPECIMEN_TEST-1.399          36.9147       NO       
       ROUND_NOTCHED_SPECIMEN_TEST-1.400          31.9633       NO       
       ROUND_NOTCHED_SPECIMEN_TEST-1.401          32.0084       NO       
       ROUND_NOTCHED_SPECIMEN_TEST-1.402          32.7414       NO       
       ROUND_NOTCHED_SPECIMEN_TEST-1.403           38.602       NO       
       ROUND_NOTCHED_SPECIMEN_TEST-1.404           33.796       NO       
       ROUND_NOTCHED_SPECIMEN_TEST-1.405          32.0323       NO       
       ROUND_NOTCHED_SPECIMEN_TEST-1.407          32.8849       NO       
       ROUND_NOTCHED_SPECIMEN_TEST-1.408           34.039       NO       
       ROUND_NOTCHED_SPECIMEN_TEST-1.409          33.2763       NO       
       ROUND_NOTCHED_SPECIMEN_TEST-1.410          33.6816       NO       
       ROUND_NOTCHED_SPECIMEN_TEST-1.412          34.0611       NO       
       ROUND_NOTCHED_SPECIMEN_TEST-1.413          32.6259       NO       
       ROUND_NOTCHED_SPECIMEN_TEST-1.414          43.1619       NO       
       ROUND_NOTCHED_SPECIMEN_TEST-1.415          32.2455       NO       
       ROUND_NOTCHED_SPECIMEN_TEST-1.416           37.788       NO       
       ROUND_NOTCHED_SPECIMEN_TEST-1.417          34.5328       NO       
       ROUND_NOTCHED_SPECIMEN_TEST-1.418          32.8678       NO       
       ROUND_NOTCHED_SPECIMEN_TEST-1.419          32.2253       NO       
       ROUND_NOTCHED_SPECIMEN_TEST-1.420          33.8158       NO       
       ROUND_NOTCHED_SPECIMEN_TEST-1.421          32.8945       NO       
       ROUND_NOTCHED_SPECIMEN_TEST-1.422          33.4273       NO       
       ROUND_NOTCHED_SPECIMEN_TEST-1.423          32.2872       NO       
       ROUND_NOTCHED_SPECIMEN_TEST-1.424          33.4787       NO       
       ROUND_NOTCHED_SPECIMEN_TEST-1.425          33.3953       NO       
       ROUND_NOTCHED_SPECIMEN_TEST-1.426          33.6686       NO       
       ROUND_NOTCHED_SPECIMEN_TEST-1.427          32.7317       NO       
       ROUND_NOTCHED_SPECIMEN_TEST-1.428          32.7919       NO       
       ROUND_NOTCHED_SPECIMEN_TEST-1.429          38.2935       NO       
       ROUND_NOTCHED_SPECIMEN_TEST-1.430          32.1563       NO       
       ROUND_NOTCHED_SPECIMEN_TEST-1.431          32.7692       NO       
       ROUND_NOTCHED_SPECIMEN_TEST-1.432          32.2245       NO       
       ROUND_NOTCHED_SPECIMEN_TEST-1.433          32.7986       NO       
       ROUND_NOTCHED_SPECIMEN_TEST-1.434          32.2021       NO       
       ROUND_NOTCHED_SPECIMEN_TEST-1.435          37.3112       NO       
       ROUND_NOTCHED_SPECIMEN_TEST-1.436          33.0593       NO       
       ROUND_NOTCHED_SPECIMEN_TEST-1.437          33.3604       NO       
       ROUND_NOTCHED_SPECIMEN_TEST-1.438          32.4254       NO       
       ROUND_NOTCHED_SPECIMEN_TEST-1.439          35.2595       NO       
       ROUND_NOTCHED_SPECIMEN_TEST-1.440          32.6286       NO       
       ROUND_NOTCHED_SPECIMEN_TEST-1.441          32.7657       NO       
       ROUND_NOTCHED_SPECIMEN_TEST-1.442          33.7914       NO       
       ROUND_NOTCHED_SPECIMEN_TEST-1.443          32.8181       NO       
       ROUND_NOTCHED_SPECIMEN_TEST-1.444          33.6232       NO       
       ROUND_NOTCHED_SPECIMEN_TEST-1.445          34.9904       NO       
       ROUND_NOTCHED_SPECIMEN_TEST-1.447          33.6051       NO       
       ROUND_NOTCHED_SPECIMEN_TEST-1.448          34.4071       NO       
       ROUND_NOTCHED_SPECIMEN_TEST-1.449          43.0795       NO       
       ROUND_NOTCHED_SPECIMEN_TEST-1.450          33.6168       NO       
       ROUND_NOTCHED_SPECIMEN_TEST-1.451          40.3912       NO       
       ROUND_NOTCHED_SPECIMEN_TEST-1.452          39.4608       NO       
       ROUND_NOTCHED_SPECIMEN_TEST-1.453          33.3544       NO       
       ROUND_NOTCHED_SPECIMEN_TEST-1.454          40.9238       NO       
       ROUND_NOTCHED_SPECIMEN_TEST-1.455          39.2148       NO       
       ROUND_NOTCHED_SPECIMEN_TEST-1.456          33.3818       NO       
       ROUND_NOTCHED_SPECIMEN_TEST-1.458          33.6043       NO       
       ROUND_NOTCHED_SPECIMEN_TEST-1.459          34.6501       NO       
       ROUND_NOTCHED_SPECIMEN_TEST-1.460          40.9699       NO       
       ROUND_NOTCHED_SPECIMEN_TEST-1.461             34.1       NO       
       ROUND_NOTCHED_SPECIMEN_TEST-1.462          42.8416       NO       
       ROUND_NOTCHED_SPECIMEN_TEST-1.464          33.5004       NO       
       ROUND_NOTCHED_SPECIMEN_TEST-1.465          36.0349       NO       
       ROUND_NOTCHED_SPECIMEN_TEST-1.466          37.9058       NO       
       ROUND_NOTCHED_SPECIMEN_TEST-1.467          36.1393       NO       
       ROUND_NOTCHED_SPECIMEN_TEST-1.468          34.5239       NO       
       ROUND_NOTCHED_SPECIMEN_TEST-1.469          35.5261       NO       
       ROUND_NOTCHED_SPECIMEN_TEST-1.470          33.3263       NO       
       ROUND_NOTCHED_SPECIMEN_TEST-1.471           34.151       NO       
       ROUND_NOTCHED_SPECIMEN_TEST-1.472          42.5277       NO       
       ROUND_NOTCHED_SPECIMEN_TEST-1.473          34.1743       NO       
       ROUND_NOTCHED_SPECIMEN_TEST-1.474          32.5767       NO       
       ROUND_NOTCHED_SPECIMEN_TEST-1.475           33.613       NO       
       ROUND_NOTCHED_SPECIMEN_TEST-1.476          34.5144       NO       
       ROUND_NOTCHED_SPECIMEN_TEST-1.477          36.1472       NO       
       ROUND_NOTCHED_SPECIMEN_TEST-1.478          33.5473       NO       
       ROUND_NOTCHED_SPECIMEN_TEST-1.479          33.1435       NO       
       ROUND_NOTCHED_SPECIMEN_TEST-1.480          32.7198       NO       
       ROUND_NOTCHED_SPECIMEN_TEST-1.481          37.1899       NO       
       ROUND_NOTCHED_SPECIMEN_TEST-1.483          34.2322       NO       
       ROUND_NOTCHED_SPECIMEN_TEST-1.484          32.7478       NO       
       ROUND_NOTCHED_SPECIMEN_TEST-1.485           32.949       NO       
       ROUND_NOTCHED_SPECIMEN_TEST-1.486          33.5407       NO       
       ROUND_NOTCHED_SPECIMEN_TEST-1.487          34.5035       NO       
       ROUND_NOTCHED_SPECIMEN_TEST-1.488          33.4479       NO       
       ROUND_NOTCHED_SPECIMEN_TEST-1.489          34.3642       NO       
       ROUND_NOTCHED_SPECIMEN_TEST-1.490          33.5058       NO       
       ROUND_NOTCHED_SPECIMEN_TEST-1.491          34.0494       NO       
       ROUND_NOTCHED_SPECIMEN_TEST-1.492          33.2577       NO       
       ROUND_NOTCHED_SPECIMEN_TEST-1.493          32.7283       NO       
       ROUND_NOTCHED_SPECIMEN_TEST-1.494           34.139       NO       
       ROUND_NOTCHED_SPECIMEN_TEST-1.495          33.0036       NO       
       ROUND_NOTCHED_SPECIMEN_TEST-1.496          34.1106       NO       
       ROUND_NOTCHED_SPECIMEN_TEST-1.497          33.9422       NO       
       ROUND_NOTCHED_SPECIMEN_TEST-1.498          33.2244       NO       
       ROUND_NOTCHED_SPECIMEN_TEST-1.499          33.3193       NO       
       ROUND_NOTCHED_SPECIMEN_TEST-1.500          35.4105       NO       
       ROUND_NOTCHED_SPECIMEN_TEST-1.501          32.9978       NO       
       ROUND_NOTCHED_SPECIMEN_TEST-1.502          33.3159       NO       
       ROUND_NOTCHED_SPECIMEN_TEST-1.503          33.7496       NO       
       ROUND_NOTCHED_SPECIMEN_TEST-1.504          40.3444       NO       
       ROUND_NOTCHED_SPECIMEN_TEST-1.505           34.041       NO       
       ROUND_NOTCHED_SPECIMEN_TEST-1.506          33.5975       NO       
       ROUND_NOTCHED_SPECIMEN_TEST-1.507          34.2586       NO       
       ROUND_NOTCHED_SPECIMEN_TEST-1.508          34.0071       NO       
       ROUND_NOTCHED_SPECIMEN_TEST-1.509          33.7638       NO       
       ROUND_NOTCHED_SPECIMEN_TEST-1.510          44.6308       NO       
       ROUND_NOTCHED_SPECIMEN_TEST-1.511          33.6938       NO       
       ROUND_NOTCHED_SPECIMEN_TEST-1.512          36.2532       NO       
       ROUND_NOTCHED_SPECIMEN_TEST-1.513          43.9607       NO       
       ROUND_NOTCHED_SPECIMEN_TEST-1.514          42.5503       NO       
       ROUND_NOTCHED_SPECIMEN_TEST-1.515          38.1019       NO       
       ROUND_NOTCHED_SPECIMEN_TEST-1.516          44.7412       NO       
       ROUND_NOTCHED_SPECIMEN_TEST-1.517          33.3007       NO       
       ROUND_NOTCHED_SPECIMEN_TEST-1.518          43.7211       NO       
       ROUND_NOTCHED_SPECIMEN_TEST-1.519          41.8501       NO       
       ROUND_NOTCHED_SPECIMEN_TEST-1.520          35.7353       NO       
       ROUND_NOTCHED_SPECIMEN_TEST-1.521          34.6508       NO       
       ROUND_NOTCHED_SPECIMEN_TEST-1.523          33.3335       NO       
       ROUND_NOTCHED_SPECIMEN_TEST-1.524          33.2404       NO       
       ROUND_NOTCHED_SPECIMEN_TEST-1.525          34.2552       NO       
       ROUND_NOTCHED_SPECIMEN_TEST-1.526          34.0159       NO       
       ROUND_NOTCHED_SPECIMEN_TEST-1.527          33.4473       NO       
       ROUND_NOTCHED_SPECIMEN_TEST-1.528          42.1401       NO       
       ROUND_NOTCHED_SPECIMEN_TEST-1.529          35.0197       NO       
       ROUND_NOTCHED_SPECIMEN_TEST-1.530          34.1664       NO       
       ROUND_NOTCHED_SPECIMEN_TEST-1.532          34.1348       NO       
       ROUND_NOTCHED_SPECIMEN_TEST-1.534          34.1617       NO       
       ROUND_NOTCHED_SPECIMEN_TEST-1.535          33.6068       NO       
       ROUND_NOTCHED_SPECIMEN_TEST-1.536          34.4018       NO       
       ROUND_NOTCHED_SPECIMEN_TEST-1.537          33.9397       NO       
       ROUND_NOTCHED_SPECIMEN_TEST-1.538          33.5952       NO       
       ROUND_NOTCHED_SPECIMEN_TEST-1.539          36.4348       NO       
       ROUND_NOTCHED_SPECIMEN_TEST-1.540          33.8495       NO       
       ROUND_NOTCHED_SPECIMEN_TEST-1.541          35.2128       NO       
       ROUND_NOTCHED_SPECIMEN_TEST-1.542          36.2785       NO       
       ROUND_NOTCHED_SPECIMEN_TEST-1.543          34.8535       NO       
       ROUND_NOTCHED_SPECIMEN_TEST-1.545           33.644       NO       
       ROUND_NOTCHED_SPECIMEN_TEST-1.546          35.9551       NO       
       ROUND_NOTCHED_SPECIMEN_TEST-1.547          34.8848       NO       
       ROUND_NOTCHED_SPECIMEN_TEST-1.548          36.0103       NO       
       ROUND_NOTCHED_SPECIMEN_TEST-1.549          42.8385       NO       
       ROUND_NOTCHED_SPECIMEN_TEST-1.550          35.6463       NO       
       ROUND_NOTCHED_SPECIMEN_TEST-1.551          35.4175       NO       
       ROUND_NOTCHED_SPECIMEN_TEST-1.552          34.8473       NO       
       ROUND_NOTCHED_SPECIMEN_TEST-1.553          34.0089       NO       
       ROUND_NOTCHED_SPECIMEN_TEST-1.555          34.7771       NO       
       ROUND_NOTCHED_SPECIMEN_TEST-1.556          34.2525       NO       
       ROUND_NOTCHED_SPECIMEN_TEST-1.557          39.0736       NO       
       ROUND_NOTCHED_SPECIMEN_TEST-1.558          41.2941       NO       
       ROUND_NOTCHED_SPECIMEN_TEST-1.559          40.7477       NO       
       ROUND_NOTCHED_SPECIMEN_TEST-1.560          38.7846       NO       
       ROUND_NOTCHED_SPECIMEN_TEST-1.561           44.857       NO       
       ROUND_NOTCHED_SPECIMEN_TEST-1.562          43.7173       NO       
       ROUND_NOTCHED_SPECIMEN_TEST-1.564          33.9917       NO       
       ROUND_NOTCHED_SPECIMEN_TEST-1.565          34.2264       NO       
       ROUND_NOTCHED_SPECIMEN_TEST-1.567           34.929       NO       
       ROUND_NOTCHED_SPECIMEN_TEST-1.568          39.2014       NO       
       ROUND_NOTCHED_SPECIMEN_TEST-1.569          35.4344       NO       
       ROUND_NOTCHED_SPECIMEN_TEST-1.570          33.9973       NO       
       ROUND_NOTCHED_SPECIMEN_TEST-1.571          35.1231       NO       
       ROUND_NOTCHED_SPECIMEN_TEST-1.572          42.8557       NO       
       ROUND_NOTCHED_SPECIMEN_TEST-1.574          35.1446       NO       
       ROUND_NOTCHED_SPECIMEN_TEST-1.575          35.9962       NO       
       ROUND_NOTCHED_SPECIMEN_TEST-1.579          42.0416       NO       
       ROUND_NOTCHED_SPECIMEN_TEST-1.580          38.4722       NO       
       ROUND_NOTCHED_SPECIMEN_TEST-1.581          34.0256       NO       
       ROUND_NOTCHED_SPECIMEN_TEST-1.582          34.1186       NO       
       ROUND_NOTCHED_SPECIMEN_TEST-1.584          40.4371       NO       
       ROUND_NOTCHED_SPECIMEN_TEST-1.585          41.8627       NO       
       ROUND_NOTCHED_SPECIMEN_TEST-1.586          41.1612       NO       
       ROUND_NOTCHED_SPECIMEN_TEST-1.587          40.2666       NO       
       ROUND_NOTCHED_SPECIMEN_TEST-1.589          44.4471       NO       
       ROUND_NOTCHED_SPECIMEN_TEST-1.590          33.8075       NO       
       ROUND_NOTCHED_SPECIMEN_TEST-1.591          36.0537       NO       
       ROUND_NOTCHED_SPECIMEN_TEST-1.592          37.9953       NO       
       ROUND_NOTCHED_SPECIMEN_TEST-1.593          39.2456       NO       
       ROUND_NOTCHED_SPECIMEN_TEST-1.594          37.6273       NO       
       ROUND_NOTCHED_SPECIMEN_TEST-1.595          44.1294       NO       
       ROUND_NOTCHED_SPECIMEN_TEST-1.601          42.1817       NO       
       ROUND_NOTCHED_SPECIMEN_TEST-1.605           38.473       NO       
       ROUND_NOTCHED_SPECIMEN_TEST-1.607          39.8108       NO       
       ROUND_NOTCHED_SPECIMEN_TEST-1.608          37.4485       NO       
       ROUND_NOTCHED_SPECIMEN_TEST-1.609          39.0039       NO       
       ROUND_NOTCHED_SPECIMEN_TEST-1.610          42.5505       NO       
       ROUND_NOTCHED_SPECIMEN_TEST-1.611          40.6872       NO       
       ROUND_NOTCHED_SPECIMEN_TEST-1.613          36.3324       NO       
       ROUND_NOTCHED_SPECIMEN_TEST-1.615          36.5143       NO       
       ROUND_NOTCHED_SPECIMEN_TEST-1.616          41.9185       NO       
       ROUND_NOTCHED_SPECIMEN_TEST-1.617          36.9435       NO       
       ROUND_NOTCHED_SPECIMEN_TEST-1.618          39.0742       NO       
       ROUND_NOTCHED_SPECIMEN_TEST-1.619          33.8816       NO       
       ROUND_NOTCHED_SPECIMEN_TEST-1.620          39.1077       NO       
       ROUND_NOTCHED_SPECIMEN_TEST-1.622          41.3619       NO       
       ROUND_NOTCHED_SPECIMEN_TEST-1.623          44.2343       NO       
       ROUND_NOTCHED_SPECIMEN_TEST-1.625          38.6973       NO       
       ROUND_NOTCHED_SPECIMEN_TEST-1.626          33.6221       NO       
       ROUND_NOTCHED_SPECIMEN_TEST-1.627           34.062       NO       
       ROUND_NOTCHED_SPECIMEN_TEST-1.629          39.2057       NO       
       ROUND_NOTCHED_SPECIMEN_TEST-1.632          35.0208       NO       
       ROUND_NOTCHED_SPECIMEN_TEST-1.634          37.2667       NO       
       ROUND_NOTCHED_SPECIMEN_TEST-1.635          35.5313       NO       
       ROUND_NOTCHED_SPECIMEN_TEST-1.636           34.287       NO       
       ROUND_NOTCHED_SPECIMEN_TEST-1.640          41.0886       NO       
       ROUND_NOTCHED_SPECIMEN_TEST-1.644          37.0561       NO       
       ROUND_NOTCHED_SPECIMEN_TEST-1.645          36.9799       NO       
       ROUND_NOTCHED_SPECIMEN_TEST-1.646          35.5236       NO       
       ROUND_NOTCHED_SPECIMEN_TEST-1.647          43.2268       NO       
       ROUND_NOTCHED_SPECIMEN_TEST-1.648          40.7666       NO       
       ROUND_NOTCHED_SPECIMEN_TEST-1.649          41.2844       NO       
       ROUND_NOTCHED_SPECIMEN_TEST-1.650          42.1992       NO       
       ROUND_NOTCHED_SPECIMEN_TEST-1.652          39.5925       NO       
       ROUND_NOTCHED_SPECIMEN_TEST-1.653          36.0461       NO       
       ROUND_NOTCHED_SPECIMEN_TEST-1.654          38.1353       NO       
       ROUND_NOTCHED_SPECIMEN_TEST-1.655          36.9352       NO       
       ROUND_NOTCHED_SPECIMEN_TEST-1.656          43.2747       NO       
       ROUND_NOTCHED_SPECIMEN_TEST-1.657          44.9886       NO       
       ROUND_NOTCHED_SPECIMEN_TEST-1.659          35.0804       NO       
       ROUND_NOTCHED_SPECIMEN_TEST-1.661          41.4887       NO       
       ROUND_NOTCHED_SPECIMEN_TEST-1.663          35.5868       NO       
       ROUND_NOTCHED_SPECIMEN_TEST-1.664          39.8716       NO       
       ROUND_NOTCHED_SPECIMEN_TEST-1.665          37.2451       NO       
       ROUND_NOTCHED_SPECIMEN_TEST-1.666          36.4925       NO       
       ROUND_NOTCHED_SPECIMEN_TEST-1.667          39.3451       NO       
       ROUND_NOTCHED_SPECIMEN_TEST-1.668          38.1056       NO       
       ROUND_NOTCHED_SPECIMEN_TEST-1.669          43.4472       NO       
       ROUND_NOTCHED_SPECIMEN_TEST-1.670          37.6399       NO       
       ROUND_NOTCHED_SPECIMEN_TEST-1.673          36.3578       NO       
       ROUND_NOTCHED_SPECIMEN_TEST-1.675           35.848       NO       
       ROUND_NOTCHED_SPECIMEN_TEST-1.676           43.031       NO       
       ROUND_NOTCHED_SPECIMEN_TEST-1.677          42.6607       NO       
       ROUND_NOTCHED_SPECIMEN_TEST-1.678          39.2016       NO       
       ROUND_NOTCHED_SPECIMEN_TEST-1.679          44.5554       NO       
       ROUND_NOTCHED_SPECIMEN_TEST-1.680          40.4645       NO       
       ROUND_NOTCHED_SPECIMEN_TEST-1.681          37.8788       NO       
       ROUND_NOTCHED_SPECIMEN_TEST-1.683          44.9854       NO       
       ROUND_NOTCHED_SPECIMEN_TEST-1.684          43.1447       NO       
       ROUND_NOTCHED_SPECIMEN_TEST-1.686          43.5034       NO       
       ROUND_NOTCHED_SPECIMEN_TEST-1.691          44.4387       NO       
       ROUND_NOTCHED_SPECIMEN_TEST-1.692           37.828       NO       
       ROUND_NOTCHED_SPECIMEN_TEST-1.694          39.7721       NO       
       ROUND_NOTCHED_SPECIMEN_TEST-1.695          44.7134       NO       
       ROUND_NOTCHED_SPECIMEN_TEST-1.697          37.3288       NO       
       ROUND_NOTCHED_SPECIMEN_TEST-1.698          37.7156       NO       
       ROUND_NOTCHED_SPECIMEN_TEST-1.700          41.7993       NO       
       ROUND_NOTCHED_SPECIMEN_TEST-1.702          38.7332       NO       
       ROUND_NOTCHED_SPECIMEN_TEST-1.703          42.4242       NO       
       ROUND_NOTCHED_SPECIMEN_TEST-1.704           41.712       NO       
       ROUND_NOTCHED_SPECIMEN_TEST-1.705          40.9055       NO       
       ROUND_NOTCHED_SPECIMEN_TEST-1.707          37.9613       NO       
       ROUND_NOTCHED_SPECIMEN_TEST-1.708          39.0699       NO       
       ROUND_NOTCHED_SPECIMEN_TEST-1.712          42.8574       NO       
       ROUND_NOTCHED_SPECIMEN_TEST-1.713          41.2177       NO       
       ROUND_NOTCHED_SPECIMEN_TEST-1.715           38.364       NO       
       ROUND_NOTCHED_SPECIMEN_TEST-1.720          44.0587       NO       
       ROUND_NOTCHED_SPECIMEN_TEST-1.721           38.571       NO       
       ROUND_NOTCHED_SPECIMEN_TEST-1.723          40.7408       NO       
       ROUND_NOTCHED_SPECIMEN_TEST-1.724           43.345       NO       
       ROUND_NOTCHED_SPECIMEN_TEST-1.725           43.102       NO       
       ROUND_NOTCHED_SPECIMEN_TEST-1.727           37.499       NO       
       ROUND_NOTCHED_SPECIMEN_TEST-1.728          42.9924       NO       
       ROUND_NOTCHED_SPECIMEN_TEST-1.730          42.8433       NO       
       ROUND_NOTCHED_SPECIMEN_TEST-1.734           40.151       NO       
       ROUND_NOTCHED_SPECIMEN_TEST-1.736          41.6544       NO       
       ROUND_NOTCHED_SPECIMEN_TEST-1.737          39.0263       NO       
       ROUND_NOTCHED_SPECIMEN_TEST-1.742          44.0898       NO       
       ROUND_NOTCHED_SPECIMEN_TEST-1.744          43.9165       NO       
       ROUND_NOTCHED_SPECIMEN_TEST-1.749          40.9108       NO       
       ROUND_NOTCHED_SPECIMEN_TEST-1.752          41.4019       NO       
       ROUND_NOTCHED_SPECIMEN_TEST-1.754          37.6295       NO       
       ROUND_NOTCHED_SPECIMEN_TEST-1.755          39.8813       NO       
       ROUND_NOTCHED_SPECIMEN_TEST-1.756          44.9056       NO       
       ROUND_NOTCHED_SPECIMEN_TEST-1.758          38.3996       NO       
       ROUND_NOTCHED_SPECIMEN_TEST-1.759          41.0868       NO       
       ROUND_NOTCHED_SPECIMEN_TEST-1.760          41.6319       NO       
       ROUND_NOTCHED_SPECIMEN_TEST-1.761          43.5855       NO       
       ROUND_NOTCHED_SPECIMEN_TEST-1.762          37.4528       NO       
       ROUND_NOTCHED_SPECIMEN_TEST-1.768          42.3579       NO       
       ROUND_NOTCHED_SPECIMEN_TEST-1.771          39.5239       NO       
       ROUND_NOTCHED_SPECIMEN_TEST-1.773          39.9482       NO       
       ROUND_NOTCHED_SPECIMEN_TEST-1.778          43.2551       NO       
       ROUND_NOTCHED_SPECIMEN_TEST-1.784          43.6476       NO       
       ROUND_NOTCHED_SPECIMEN_TEST-1.788          42.8252       NO       
       ROUND_NOTCHED_SPECIMEN_TEST-1.789          38.6343       NO       
       ROUND_NOTCHED_SPECIMEN_TEST-1.790          40.1432       NO       
       ROUND_NOTCHED_SPECIMEN_TEST-1.794          41.6232       NO       
       ROUND_NOTCHED_SPECIMEN_TEST-1.796          42.5778       NO       
       ROUND_NOTCHED_SPECIMEN_TEST-1.798          41.8766       NO       
       ROUND_NOTCHED_SPECIMEN_TEST-1.800          43.2255       NO       
       ROUND_NOTCHED_SPECIMEN_TEST-1.807          44.9296       NO       
       ROUND_NOTCHED_SPECIMEN_TEST-1.808          43.2858       NO       
       ROUND_NOTCHED_SPECIMEN_TEST-1.813          41.7173       NO       
       ROUND_NOTCHED_SPECIMEN_TEST-1.814            40.79       NO       
       ROUND_NOTCHED_SPECIMEN_TEST-1.815          41.6814       NO       
       ROUND_NOTCHED_SPECIMEN_TEST-1.823          42.6636       NO       
       ROUND_NOTCHED_SPECIMEN_TEST-1.826          41.1444       NO       
       ROUND_NOTCHED_SPECIMEN_TEST-1.829          43.1162       NO       
       ROUND_NOTCHED_SPECIMEN_TEST-1.838          43.0783       NO       
       ROUND_NOTCHED_SPECIMEN_TEST-1.844          42.8184       NO       
       ROUND_NOTCHED_SPECIMEN_TEST-1.848          43.9935       NO       
       ROUND_NOTCHED_SPECIMEN_TEST-1.856          44.7189       NO       
       ROUND_NOTCHED_SPECIMEN_TEST-1.867          44.8155       NO       
       ROUND_NOTCHED_SPECIMEN_TEST-1.925          31.4499       NO       
       ROUND_NOTCHED_SPECIMEN_TEST-1.926          36.0691       NO       
       ROUND_NOTCHED_SPECIMEN_TEST-1.928          41.1231       NO       
       ROUND_NOTCHED_SPECIMEN_TEST-1.929          33.7213       NO       
       ROUND_NOTCHED_SPECIMEN_TEST-1.931           43.799       NO       
       ROUND_NOTCHED_SPECIMEN_TEST-1.933          38.1134       NO       
       ROUND_NOTCHED_SPECIMEN_TEST-1.934          34.5243       NO       
       ROUND_NOTCHED_SPECIMEN_TEST-1.935          44.7262       NO       
       ROUND_NOTCHED_SPECIMEN_TEST-1.936          35.3318       NO       
       ROUND_NOTCHED_SPECIMEN_TEST-1.937           33.887       NO       
       ROUND_NOTCHED_SPECIMEN_TEST-1.938          35.1179       NO       
       ROUND_NOTCHED_SPECIMEN_TEST-1.939          42.6107       NO       
       ROUND_NOTCHED_SPECIMEN_TEST-1.940          43.5883       NO       
       ROUND_NOTCHED_SPECIMEN_TEST-1.942          37.8051       NO       
       ROUND_NOTCHED_SPECIMEN_TEST-1.944          34.2065       NO       
       ROUND_NOTCHED_SPECIMEN_TEST-1.945          35.6719       NO       
       ROUND_NOTCHED_SPECIMEN_TEST-1.946          36.4018       NO       
       ROUND_NOTCHED_SPECIMEN_TEST-1.947          39.5685       NO       
       ROUND_NOTCHED_SPECIMEN_TEST-1.948          41.6242       NO       
       ROUND_NOTCHED_SPECIMEN_TEST-1.949          34.5446       NO       
       ROUND_NOTCHED_SPECIMEN_TEST-1.950          41.0085       NO       
       ROUND_NOTCHED_SPECIMEN_TEST-1.951          30.0942       NO       
       ROUND_NOTCHED_SPECIMEN_TEST-1.952          30.1835       NO       
       ROUND_NOTCHED_SPECIMEN_TEST-1.953           31.661       NO       
       ROUND_NOTCHED_SPECIMEN_TEST-1.954           30.555       NO       
       ROUND_NOTCHED_SPECIMEN_TEST-1.955          30.3239       NO       
       ROUND_NOTCHED_SPECIMEN_TEST-1.956          30.0359       NO       
       ROUND_NOTCHED_SPECIMEN_TEST-1.957          31.1907       NO       
       ROUND_NOTCHED_SPECIMEN_TEST-1.958          31.6903       NO       
       ROUND_NOTCHED_SPECIMEN_TEST-1.959          29.5074       NO       
       ROUND_NOTCHED_SPECIMEN_TEST-1.960          29.4187       NO       
       ROUND_NOTCHED_SPECIMEN_TEST-1.961          30.9106       NO       
       ROUND_NOTCHED_SPECIMEN_TEST-1.962          31.2401       NO       
       ROUND_NOTCHED_SPECIMEN_TEST-1.963          39.1455       NO       
       ROUND_NOTCHED_SPECIMEN_TEST-1.964          30.8055       NO       
       ROUND_NOTCHED_SPECIMEN_TEST-1.965          29.8388       NO       
       ROUND_NOTCHED_SPECIMEN_TEST-1.966          37.6472       NO       
       ROUND_NOTCHED_SPECIMEN_TEST-1.967          29.9444       NO       
       ROUND_NOTCHED_SPECIMEN_TEST-1.968          30.6238       NO       
       ROUND_NOTCHED_SPECIMEN_TEST-1.969          33.6743       NO       
       ROUND_NOTCHED_SPECIMEN_TEST-1.970          30.6336       NO       
       ROUND_NOTCHED_SPECIMEN_TEST-1.971           31.105       NO       
       ROUND_NOTCHED_SPECIMEN_TEST-1.972          31.9812       NO       
       ROUND_NOTCHED_SPECIMEN_TEST-1.973          32.1749       NO       
       ROUND_NOTCHED_SPECIMEN_TEST-1.974           31.622       NO       
       ROUND_NOTCHED_SPECIMEN_TEST-1.975          31.4229       NO       
       ROUND_NOTCHED_SPECIMEN_TEST-1.976          31.1432       NO       
       ROUND_NOTCHED_SPECIMEN_TEST-1.977          30.9379       NO       
       ROUND_NOTCHED_SPECIMEN_TEST-1.978          30.4852       NO       
       ROUND_NOTCHED_SPECIMEN_TEST-1.979          30.2538       NO       
       ROUND_NOTCHED_SPECIMEN_TEST-1.980          30.7974       NO       
       ROUND_NOTCHED_SPECIMEN_TEST-1.981          30.2138       NO       
       ROUND_NOTCHED_SPECIMEN_TEST-1.982           31.162       NO       
       ROUND_NOTCHED_SPECIMEN_TEST-1.983          30.2887       NO       
       ROUND_NOTCHED_SPECIMEN_TEST-1.984          30.8805       NO       
       ROUND_NOTCHED_SPECIMEN_TEST-1.985          36.4301       NO       
       ROUND_NOTCHED_SPECIMEN_TEST-1.986          30.3788       NO       
       ROUND_NOTCHED_SPECIMEN_TEST-1.987          30.4258       NO       
       ROUND_NOTCHED_SPECIMEN_TEST-1.988          30.3123       NO       
       ROUND_NOTCHED_SPECIMEN_TEST-1.989          30.9725       NO       
       ROUND_NOTCHED_SPECIMEN_TEST-1.990          30.1507       NO       
       ROUND_NOTCHED_SPECIMEN_TEST-1.991             37.8       NO       
       ROUND_NOTCHED_SPECIMEN_TEST-1.992          31.1572       NO       
       ROUND_NOTCHED_SPECIMEN_TEST-1.993            29.96       NO       
       ROUND_NOTCHED_SPECIMEN_TEST-1.994           30.938       NO       
       ROUND_NOTCHED_SPECIMEN_TEST-1.995           29.833       NO       
       ROUND_NOTCHED_SPECIMEN_TEST-1.997          31.1128       NO       
       ROUND_NOTCHED_SPECIMEN_TEST-1.998          31.1868       NO       
       ROUND_NOTCHED_SPECIMEN_TEST-1.999          29.6246       NO       
      ROUND_NOTCHED_SPECIMEN_TEST-1.1000          29.5905       NO       
      ROUND_NOTCHED_SPECIMEN_TEST-1.1001          40.1649       NO       
      ROUND_NOTCHED_SPECIMEN_TEST-1.1002          29.4876       NO       
      ROUND_NOTCHED_SPECIMEN_TEST-1.1003          31.1165       NO       
      ROUND_NOTCHED_SPECIMEN_TEST-1.1004          29.4183       NO       
      ROUND_NOTCHED_SPECIMEN_TEST-1.1005          31.6144       NO       
      ROUND_NOTCHED_SPECIMEN_TEST-1.1006          30.9851       NO       
      ROUND_NOTCHED_SPECIMEN_TEST-1.1007          29.4437       NO       
      ROUND_NOTCHED_SPECIMEN_TEST-1.1008          30.8791       NO       
      ROUND_NOTCHED_SPECIMEN_TEST-1.1009          29.5055       NO       
      ROUND_NOTCHED_SPECIMEN_TEST-1.1010          29.5986       NO       
      ROUND_NOTCHED_SPECIMEN_TEST-1.1011          29.6472       NO       
      ROUND_NOTCHED_SPECIMEN_TEST-1.1012          29.6943       NO       
      ROUND_NOTCHED_SPECIMEN_TEST-1.1013           29.741       NO       
      ROUND_NOTCHED_SPECIMEN_TEST-1.1014          29.7929       NO       
      ROUND_NOTCHED_SPECIMEN_TEST-1.1015          29.8879       NO       
      ROUND_NOTCHED_SPECIMEN_TEST-1.1016          31.5828       NO       
      ROUND_NOTCHED_SPECIMEN_TEST-1.1017          29.9995       NO       
      ROUND_NOTCHED_SPECIMEN_TEST-1.1018           30.117       NO       
      ROUND_NOTCHED_SPECIMEN_TEST-1.1019          30.2221       NO       
      ROUND_NOTCHED_SPECIMEN_TEST-1.1020          30.3097       NO       
      ROUND_NOTCHED_SPECIMEN_TEST-1.1021          30.4072       NO       
      ROUND_NOTCHED_SPECIMEN_TEST-1.1022          30.5166       NO       
      ROUND_NOTCHED_SPECIMEN_TEST-1.1023           30.633       NO       
      ROUND_NOTCHED_SPECIMEN_TEST-1.1024          30.7763       NO       
      ROUND_NOTCHED_SPECIMEN_TEST-1.1025          33.5443       NO       
      ROUND_NOTCHED_SPECIMEN_TEST-1.1026          31.2838       NO       
      ROUND_NOTCHED_SPECIMEN_TEST-1.1027          31.2555       NO       
      ROUND_NOTCHED_SPECIMEN_TEST-1.1028          31.1979       NO       
      ROUND_NOTCHED_SPECIMEN_TEST-1.1029          31.0439       NO       
      ROUND_NOTCHED_SPECIMEN_TEST-1.1030          30.9799       NO       
      ROUND_NOTCHED_SPECIMEN_TEST-1.1031          31.6766       NO       
      ROUND_NOTCHED_SPECIMEN_TEST-1.1033          29.5325       NO       
      ROUND_NOTCHED_SPECIMEN_TEST-1.1034          29.4661       NO       
      ROUND_NOTCHED_SPECIMEN_TEST-1.1035          31.0379       NO       
      ROUND_NOTCHED_SPECIMEN_TEST-1.1036          29.4168       NO       
      ROUND_NOTCHED_SPECIMEN_TEST-1.1037          34.1581       NO       
      ROUND_NOTCHED_SPECIMEN_TEST-1.1038          32.8107       NO       
      ROUND_NOTCHED_SPECIMEN_TEST-1.1039          33.0099       NO       
      ROUND_NOTCHED_SPECIMEN_TEST-1.1040          37.6663       NO       
      ROUND_NOTCHED_SPECIMEN_TEST-1.1042          39.0871       NO       
      ROUND_NOTCHED_SPECIMEN_TEST-1.1053           29.427       NO       
      ROUND_NOTCHED_SPECIMEN_TEST-1.1054          29.4436       NO       
      ROUND_NOTCHED_SPECIMEN_TEST-1.1055          30.1696       NO       
      ROUND_NOTCHED_SPECIMEN_TEST-1.1056          36.4998       NO       
      ROUND_NOTCHED_SPECIMEN_TEST-1.1057          40.5869       NO       
      ROUND_NOTCHED_SPECIMEN_TEST-1.1058          30.6957       NO       
      ROUND_NOTCHED_SPECIMEN_TEST-1.1059          29.5568       NO       
      ROUND_NOTCHED_SPECIMEN_TEST-1.1060          31.1818       NO       
      ROUND_NOTCHED_SPECIMEN_TEST-1.1061          29.5474       NO       
      ROUND_NOTCHED_SPECIMEN_TEST-1.1062          31.0354       NO       
      ROUND_NOTCHED_SPECIMEN_TEST-1.1063          29.6702       NO       
      ROUND_NOTCHED_SPECIMEN_TEST-1.1064           43.694       NO       
      ROUND_NOTCHED_SPECIMEN_TEST-1.1065          34.3593       NO       
      ROUND_NOTCHED_SPECIMEN_TEST-1.1066          34.5265       NO       
      ROUND_NOTCHED_SPECIMEN_TEST-1.1067          30.9241       NO       
      ROUND_NOTCHED_SPECIMEN_TEST-1.1068           31.024       NO       
      ROUND_NOTCHED_SPECIMEN_TEST-1.1069          31.1998       NO       
      ROUND_NOTCHED_SPECIMEN_TEST-1.1070          31.6151       NO       
      ROUND_NOTCHED_SPECIMEN_TEST-1.1071           30.873       NO       
      ROUND_NOTCHED_SPECIMEN_TEST-1.1072          31.1197       NO       
      ROUND_NOTCHED_SPECIMEN_TEST-1.1073          30.7822       NO       
      ROUND_NOTCHED_SPECIMEN_TEST-1.1074          31.2751       NO       
      ROUND_NOTCHED_SPECIMEN_TEST-1.1075          29.8977       NO       
      ROUND_NOTCHED_SPECIMEN_TEST-1.1076          32.0257       NO       
      ROUND_NOTCHED_SPECIMEN_TEST-1.1077          40.3394       NO       
      ROUND_NOTCHED_SPECIMEN_TEST-1.1078          30.0596       NO       
      ROUND_NOTCHED_SPECIMEN_TEST-1.1079          30.9111       NO       
      ROUND_NOTCHED_SPECIMEN_TEST-1.1080          35.2323       NO       
      ROUND_NOTCHED_SPECIMEN_TEST-1.1081          31.8167       NO       
      ROUND_NOTCHED_SPECIMEN_TEST-1.1082          34.7276       NO       
      ROUND_NOTCHED_SPECIMEN_TEST-1.1083          30.7257       NO       
      ROUND_NOTCHED_SPECIMEN_TEST-1.1084          29.4711       NO       
      ROUND_NOTCHED_SPECIMEN_TEST-1.1085          31.6695       NO       
      ROUND_NOTCHED_SPECIMEN_TEST-1.1086          31.7283       NO       
      ROUND_NOTCHED_SPECIMEN_TEST-1.1087          29.7203       NO       
      ROUND_NOTCHED_SPECIMEN_TEST-1.1088          30.2189       NO       
      ROUND_NOTCHED_SPECIMEN_TEST-1.1089          30.2623       NO       
      ROUND_NOTCHED_SPECIMEN_TEST-1.1090          30.8265       NO       
      ROUND_NOTCHED_SPECIMEN_TEST-1.1091          31.1771       NO       
      ROUND_NOTCHED_SPECIMEN_TEST-1.1092          30.6184       NO       
      ROUND_NOTCHED_SPECIMEN_TEST-1.1093          29.4284       NO       
      ROUND_NOTCHED_SPECIMEN_TEST-1.1094          31.5496       NO       
      ROUND_NOTCHED_SPECIMEN_TEST-1.1095          31.3808       NO       
      ROUND_NOTCHED_SPECIMEN_TEST-1.1096          30.4536       NO       
      ROUND_NOTCHED_SPECIMEN_TEST-1.1097          30.5864       NO       
      ROUND_NOTCHED_SPECIMEN_TEST-1.1098           31.207       NO       
      ROUND_NOTCHED_SPECIMEN_TEST-1.1099          30.5378       NO       
      ROUND_NOTCHED_SPECIMEN_TEST-1.1100          29.9022       NO       
      ROUND_NOTCHED_SPECIMEN_TEST-1.1101          30.7692       NO       
      ROUND_NOTCHED_SPECIMEN_TEST-1.1102          30.8278       NO       
      ROUND_NOTCHED_SPECIMEN_TEST-1.1103          30.5283       NO       
      ROUND_NOTCHED_SPECIMEN_TEST-1.1104          30.9283       NO       
      ROUND_NOTCHED_SPECIMEN_TEST-1.1105          29.7722       NO       
      ROUND_NOTCHED_SPECIMEN_TEST-1.1106          31.4888       NO       
      ROUND_NOTCHED_SPECIMEN_TEST-1.1107          30.9328       NO       
      ROUND_NOTCHED_SPECIMEN_TEST-1.1108          31.0114       NO       
      ROUND_NOTCHED_SPECIMEN_TEST-1.1109          31.0886       NO       
      ROUND_NOTCHED_SPECIMEN_TEST-1.1110          30.5223       NO       
      ROUND_NOTCHED_SPECIMEN_TEST-1.1111          31.5154       NO       
      ROUND_NOTCHED_SPECIMEN_TEST-1.1112           31.084       NO       
      ROUND_NOTCHED_SPECIMEN_TEST-1.1113          31.1655       NO       
      ROUND_NOTCHED_SPECIMEN_TEST-1.1114          30.8925       NO       
      ROUND_NOTCHED_SPECIMEN_TEST-1.1115          31.1672       NO       
      ROUND_NOTCHED_SPECIMEN_TEST-1.1117          31.5124       NO       
      ROUND_NOTCHED_SPECIMEN_TEST-1.1118          42.8243       NO       
      ROUND_NOTCHED_SPECIMEN_TEST-1.1119          31.1443       NO       
      ROUND_NOTCHED_SPECIMEN_TEST-1.1120          38.9213       NO       
      ROUND_NOTCHED_SPECIMEN_TEST-1.1121          30.6702       NO       
      ROUND_NOTCHED_SPECIMEN_TEST-1.1122          31.0084       NO       
      ROUND_NOTCHED_SPECIMEN_TEST-1.1123          30.9001       NO       
      ROUND_NOTCHED_SPECIMEN_TEST-1.1124          30.6256       NO       
      ROUND_NOTCHED_SPECIMEN_TEST-1.1125          30.6425       NO       
      ROUND_NOTCHED_SPECIMEN_TEST-1.1126          42.7978       NO       
      ROUND_NOTCHED_SPECIMEN_TEST-1.1127          30.9582       NO       
      ROUND_NOTCHED_SPECIMEN_TEST-1.1128           32.894       NO       
      ROUND_NOTCHED_SPECIMEN_TEST-1.1129          31.9282       NO       
      ROUND_NOTCHED_SPECIMEN_TEST-1.1130          31.1415       NO       
      ROUND_NOTCHED_SPECIMEN_TEST-1.1131          31.7571       NO       
      ROUND_NOTCHED_SPECIMEN_TEST-1.1132          31.7797       NO       
      ROUND_NOTCHED_SPECIMEN_TEST-1.1133          31.6191       NO       
      ROUND_NOTCHED_SPECIMEN_TEST-1.1134          31.0644       NO       
      ROUND_NOTCHED_SPECIMEN_TEST-1.1135           30.754       NO       
      ROUND_NOTCHED_SPECIMEN_TEST-1.1136          38.0785       NO       
      ROUND_NOTCHED_SPECIMEN_TEST-1.1137          31.3871       NO       
      ROUND_NOTCHED_SPECIMEN_TEST-1.1138          31.6209       NO       
      ROUND_NOTCHED_SPECIMEN_TEST-1.1139          33.4379       NO       
      ROUND_NOTCHED_SPECIMEN_TEST-1.1140           31.131       NO       
      ROUND_NOTCHED_SPECIMEN_TEST-1.1141          31.6789       NO       
      ROUND_NOTCHED_SPECIMEN_TEST-1.1142          30.7282       NO       
      ROUND_NOTCHED_SPECIMEN_TEST-1.1143          30.2757       NO       
      ROUND_NOTCHED_SPECIMEN_TEST-1.1144          34.0373       NO       
      ROUND_NOTCHED_SPECIMEN_TEST-1.1145           31.667       NO       
      ROUND_NOTCHED_SPECIMEN_TEST-1.1146          31.1563       NO       
      ROUND_NOTCHED_SPECIMEN_TEST-1.1147          31.6526       NO       
      ROUND_NOTCHED_SPECIMEN_TEST-1.1148          34.3396       NO       
      ROUND_NOTCHED_SPECIMEN_TEST-1.1149          31.2747       NO       
      ROUND_NOTCHED_SPECIMEN_TEST-1.1150          30.6635       NO       
      ROUND_NOTCHED_SPECIMEN_TEST-1.1151          35.6149       NO       
      ROUND_NOTCHED_SPECIMEN_TEST-1.1152          30.8641       NO       
      ROUND_NOTCHED_SPECIMEN_TEST-1.1153          31.9085       NO       
      ROUND_NOTCHED_SPECIMEN_TEST-1.1154          31.5613       NO       
      ROUND_NOTCHED_SPECIMEN_TEST-1.1155          31.0029       NO       
      ROUND_NOTCHED_SPECIMEN_TEST-1.1156          31.3703       NO       
      ROUND_NOTCHED_SPECIMEN_TEST-1.1157          30.8477       NO       
      ROUND_NOTCHED_SPECIMEN_TEST-1.1158          33.3412       NO       
      ROUND_NOTCHED_SPECIMEN_TEST-1.1159          31.6135       NO       
      ROUND_NOTCHED_SPECIMEN_TEST-1.1160          31.0415       NO       
      ROUND_NOTCHED_SPECIMEN_TEST-1.1161          31.5853       NO       
      ROUND_NOTCHED_SPECIMEN_TEST-1.1162           31.355       NO       
      ROUND_NOTCHED_SPECIMEN_TEST-1.1163           31.108       NO       
      ROUND_NOTCHED_SPECIMEN_TEST-1.1164          31.6857       NO       
      ROUND_NOTCHED_SPECIMEN_TEST-1.1165          31.2789       NO       
      ROUND_NOTCHED_SPECIMEN_TEST-1.1166          36.6507       NO       
      ROUND_NOTCHED_SPECIMEN_TEST-1.1167          32.1152       NO       
      ROUND_NOTCHED_SPECIMEN_TEST-1.1168          31.0635       NO       
      ROUND_NOTCHED_SPECIMEN_TEST-1.1169          32.4112       NO       
      ROUND_NOTCHED_SPECIMEN_TEST-1.1170          37.4029       NO       
      ROUND_NOTCHED_SPECIMEN_TEST-1.1171          33.1364       NO       
      ROUND_NOTCHED_SPECIMEN_TEST-1.1172           31.407       NO       
      ROUND_NOTCHED_SPECIMEN_TEST-1.1173          31.6751       NO       
      ROUND_NOTCHED_SPECIMEN_TEST-1.1174          31.0819       NO       
      ROUND_NOTCHED_SPECIMEN_TEST-1.1175          32.6661       NO       
      ROUND_NOTCHED_SPECIMEN_TEST-1.1176          33.0784       NO       
      ROUND_NOTCHED_SPECIMEN_TEST-1.1177          32.4903       NO       
      ROUND_NOTCHED_SPECIMEN_TEST-1.1178           35.464       NO       
      ROUND_NOTCHED_SPECIMEN_TEST-1.1179          31.3872       NO       
      ROUND_NOTCHED_SPECIMEN_TEST-1.1180          39.3141       NO       
      ROUND_NOTCHED_SPECIMEN_TEST-1.1181          38.4556       NO       
      ROUND_NOTCHED_SPECIMEN_TEST-1.1182          31.8131       NO       
      ROUND_NOTCHED_SPECIMEN_TEST-1.1183          31.9345       NO       
      ROUND_NOTCHED_SPECIMEN_TEST-1.1184          35.5037       NO       
      ROUND_NOTCHED_SPECIMEN_TEST-1.1185          33.9835       NO       
      ROUND_NOTCHED_SPECIMEN_TEST-1.1186          34.9796       NO       
      ROUND_NOTCHED_SPECIMEN_TEST-1.1187          33.9845       NO       
      ROUND_NOTCHED_SPECIMEN_TEST-1.1188          37.8269       NO       
      ROUND_NOTCHED_SPECIMEN_TEST-1.1189          34.9877       NO       
      ROUND_NOTCHED_SPECIMEN_TEST-1.1190          31.7329       NO       
      ROUND_NOTCHED_SPECIMEN_TEST-1.1191          31.9948       NO       
      ROUND_NOTCHED_SPECIMEN_TEST-1.1192          31.3144       NO       
      ROUND_NOTCHED_SPECIMEN_TEST-1.1193          32.3324       NO       
      ROUND_NOTCHED_SPECIMEN_TEST-1.1194          31.8924       NO       
      ROUND_NOTCHED_SPECIMEN_TEST-1.1195          31.0788       NO       
      ROUND_NOTCHED_SPECIMEN_TEST-1.1196          36.4195       NO       
      ROUND_NOTCHED_SPECIMEN_TEST-1.1197          42.9464       NO       
      ROUND_NOTCHED_SPECIMEN_TEST-1.1198          35.8708       NO       
      ROUND_NOTCHED_SPECIMEN_TEST-1.1199          31.0817       NO       
      ROUND_NOTCHED_SPECIMEN_TEST-1.1200            37.83       NO       
      ROUND_NOTCHED_SPECIMEN_TEST-1.1201           31.193       NO       
      ROUND_NOTCHED_SPECIMEN_TEST-1.1202          31.6623       NO       
      ROUND_NOTCHED_SPECIMEN_TEST-1.1203          32.4647       NO       
      ROUND_NOTCHED_SPECIMEN_TEST-1.1204          33.3824       NO       
      ROUND_NOTCHED_SPECIMEN_TEST-1.1205          32.1758       NO       
      ROUND_NOTCHED_SPECIMEN_TEST-1.1206          35.1174       NO       
      ROUND_NOTCHED_SPECIMEN_TEST-1.1207          31.3205       NO       
      ROUND_NOTCHED_SPECIMEN_TEST-1.1208          31.7304       NO       
      ROUND_NOTCHED_SPECIMEN_TEST-1.1209          31.3936       NO       
      ROUND_NOTCHED_SPECIMEN_TEST-1.1210          42.2463       NO       
      ROUND_NOTCHED_SPECIMEN_TEST-1.1211          31.7889       NO       
      ROUND_NOTCHED_SPECIMEN_TEST-1.1212          31.1442       NO       
      ROUND_NOTCHED_SPECIMEN_TEST-1.1213          31.8395       NO       
      ROUND_NOTCHED_SPECIMEN_TEST-1.1214          33.3527       NO       
      ROUND_NOTCHED_SPECIMEN_TEST-1.1215          31.7036       NO       
      ROUND_NOTCHED_SPECIMEN_TEST-1.1216          32.6576       NO       
      ROUND_NOTCHED_SPECIMEN_TEST-1.1217          32.3293       NO       
      ROUND_NOTCHED_SPECIMEN_TEST-1.1218          32.4468       NO       
      ROUND_NOTCHED_SPECIMEN_TEST-1.1219          31.7735       NO       
      ROUND_NOTCHED_SPECIMEN_TEST-1.1220          32.4017       NO       
      ROUND_NOTCHED_SPECIMEN_TEST-1.1221          32.2861       NO       
      ROUND_NOTCHED_SPECIMEN_TEST-1.1222          32.2266       NO       
      ROUND_NOTCHED_SPECIMEN_TEST-1.1223          32.8176       NO       
      ROUND_NOTCHED_SPECIMEN_TEST-1.1224          31.7473       NO       
      ROUND_NOTCHED_SPECIMEN_TEST-1.1225          32.2466       NO       
      ROUND_NOTCHED_SPECIMEN_TEST-1.1226          32.7712       NO       
      ROUND_NOTCHED_SPECIMEN_TEST-1.1227          31.7224       NO       
      ROUND_NOTCHED_SPECIMEN_TEST-1.1228          32.2327       NO       
      ROUND_NOTCHED_SPECIMEN_TEST-1.1229          32.4171       NO       
      ROUND_NOTCHED_SPECIMEN_TEST-1.1230          32.9058       NO       
      ROUND_NOTCHED_SPECIMEN_TEST-1.1231          31.4835       NO       
      ROUND_NOTCHED_SPECIMEN_TEST-1.1232          32.1984       NO       
      ROUND_NOTCHED_SPECIMEN_TEST-1.1233          33.3065       NO       
      ROUND_NOTCHED_SPECIMEN_TEST-1.1234          32.1513       NO       
      ROUND_NOTCHED_SPECIMEN_TEST-1.1235          32.0206       NO       
      ROUND_NOTCHED_SPECIMEN_TEST-1.1236          31.4532       NO       
      ROUND_NOTCHED_SPECIMEN_TEST-1.1237          32.1039       NO       
      ROUND_NOTCHED_SPECIMEN_TEST-1.1238          32.7107       NO       
      ROUND_NOTCHED_SPECIMEN_TEST-1.1239          31.4266       NO       
      ROUND_NOTCHED_SPECIMEN_TEST-1.1240          32.0603       NO       
      ROUND_NOTCHED_SPECIMEN_TEST-1.1241          32.0778       NO       
      ROUND_NOTCHED_SPECIMEN_TEST-1.1242          31.0051       NO       
      ROUND_NOTCHED_SPECIMEN_TEST-1.1243          33.3992       NO       
      ROUND_NOTCHED_SPECIMEN_TEST-1.1244          30.7997       NO       
      ROUND_NOTCHED_SPECIMEN_TEST-1.1245          32.5244       NO       
      ROUND_NOTCHED_SPECIMEN_TEST-1.1246          32.4195       NO       
      ROUND_NOTCHED_SPECIMEN_TEST-1.1247          33.2439       NO       
      ROUND_NOTCHED_SPECIMEN_TEST-1.1248          44.4138       NO       
      ROUND_NOTCHED_SPECIMEN_TEST-1.1249          35.1371       NO       
      ROUND_NOTCHED_SPECIMEN_TEST-1.1250          32.6581       NO       
      ROUND_NOTCHED_SPECIMEN_TEST-1.1251          36.4433       NO       
[...]
     ROUND_NOTCHED_SPECIMEN_TEST-1.27006           36.249       NO       
     ROUND_NOTCHED_SPECIMEN_TEST-1.27007          43.5019       NO       
     ROUND_NOTCHED_SPECIMEN_TEST-1.27008          33.2172       NO       
     ROUND_NOTCHED_SPECIMEN_TEST-1.27009          35.7559       NO       
     ROUND_NOTCHED_SPECIMEN_TEST-1.27010          35.0192       NO       
     ROUND_NOTCHED_SPECIMEN_TEST-1.27011          35.7308       NO       
     ROUND_NOTCHED_SPECIMEN_TEST-1.27012          35.2444       NO       
     ROUND_NOTCHED_SPECIMEN_TEST-1.27013          35.3674       NO       
     ROUND_NOTCHED_SPECIMEN_TEST-1.27014           36.969       NO       
     ROUND_NOTCHED_SPECIMEN_TEST-1.27015          33.0305       NO       
     ROUND_NOTCHED_SPECIMEN_TEST-1.27016           34.886       NO       
     ROUND_NOTCHED_SPECIMEN_TEST-1.27017          38.9767       NO       
     ROUND_NOTCHED_SPECIMEN_TEST-1.27019          35.0489       NO       
     ROUND_NOTCHED_SPECIMEN_TEST-1.27020           38.586       NO       
     ROUND_NOTCHED_SPECIMEN_TEST-1.27022          33.3914       NO       
     ROUND_NOTCHED_SPECIMEN_TEST-1.27023          39.0355       NO       
     ROUND_NOTCHED_SPECIMEN_TEST-1.27024          36.5561       NO       
     ROUND_NOTCHED_SPECIMEN_TEST-1.27025          33.0784       NO       
     ROUND_NOTCHED_SPECIMEN_TEST-1.27026          40.1327       NO       
     ROUND_NOTCHED_SPECIMEN_TEST-1.27028          35.9116       NO       
     ROUND_NOTCHED_SPECIMEN_TEST-1.27030          33.4692       NO       
     ROUND_NOTCHED_SPECIMEN_TEST-1.27031           35.095       NO       
     ROUND_NOTCHED_SPECIMEN_TEST-1.27033          37.9864       NO       
     ROUND_NOTCHED_SPECIMEN_TEST-1.27035          44.0012       NO       
     ROUND_NOTCHED_SPECIMEN_TEST-1.27036          33.4528       NO       
     ROUND_NOTCHED_SPECIMEN_TEST-1.27037            34.46       NO       
     ROUND_NOTCHED_SPECIMEN_TEST-1.27038          37.6052       NO       
     ROUND_NOTCHED_SPECIMEN_TEST-1.27039          35.6027       NO       
     ROUND_NOTCHED_SPECIMEN_TEST-1.27040          34.1586       NO       
     ROUND_NOTCHED_SPECIMEN_TEST-1.27041          40.6643       NO       
     ROUND_NOTCHED_SPECIMEN_TEST-1.27042          34.2195       NO       
     ROUND_NOTCHED_SPECIMEN_TEST-1.27043          36.5494       NO       
     ROUND_NOTCHED_SPECIMEN_TEST-1.27045          37.8597       NO       
     ROUND_NOTCHED_SPECIMEN_TEST-1.27046          35.8586       NO       
     ROUND_NOTCHED_SPECIMEN_TEST-1.27047          35.1905       NO       
     ROUND_NOTCHED_SPECIMEN_TEST-1.27048          36.0441       NO       
     ROUND_NOTCHED_SPECIMEN_TEST-1.27049          34.3885       NO       
     ROUND_NOTCHED_SPECIMEN_TEST-1.27050          36.4424       NO       
     ROUND_NOTCHED_SPECIMEN_TEST-1.27051          35.1045       NO       
     ROUND_NOTCHED_SPECIMEN_TEST-1.27052          36.3922       NO       
     ROUND_NOTCHED_SPECIMEN_TEST-1.27053          43.0774       NO       
     ROUND_NOTCHED_SPECIMEN_TEST-1.27054           43.615       NO       
     ROUND_NOTCHED_SPECIMEN_TEST-1.27055          38.4147       NO       
     ROUND_NOTCHED_SPECIMEN_TEST-1.27056          35.7279       NO       
     ROUND_NOTCHED_SPECIMEN_TEST-1.27057          35.5069       NO       
     ROUND_NOTCHED_SPECIMEN_TEST-1.27058          36.2001       NO       
     ROUND_NOTCHED_SPECIMEN_TEST-1.27059          37.9215       NO       
     ROUND_NOTCHED_SPECIMEN_TEST-1.27060          36.1438       NO       
     ROUND_NOTCHED_SPECIMEN_TEST-1.27061          33.5796       NO       
     ROUND_NOTCHED_SPECIMEN_TEST-1.27062          36.3393       NO       
     ROUND_NOTCHED_SPECIMEN_TEST-1.27063          35.1328       NO       
     ROUND_NOTCHED_SPECIMEN_TEST-1.27064          37.3348       NO       
     ROUND_NOTCHED_SPECIMEN_TEST-1.27065          36.7073       NO       
     ROUND_NOTCHED_SPECIMEN_TEST-1.27066          36.9512       NO       
     ROUND_NOTCHED_SPECIMEN_TEST-1.27067          35.3028       NO       
     ROUND_NOTCHED_SPECIMEN_TEST-1.27068          34.6788       NO       
     ROUND_NOTCHED_SPECIMEN_TEST-1.27069          39.7032       NO       
     ROUND_NOTCHED_SPECIMEN_TEST-1.27070           36.248       NO       
     ROUND_NOTCHED_SPECIMEN_TEST-1.27071          36.0742       NO       
     ROUND_NOTCHED_SPECIMEN_TEST-1.27072          40.6385       NO       
     ROUND_NOTCHED_SPECIMEN_TEST-1.27073          34.1134       NO       
     ROUND_NOTCHED_SPECIMEN_TEST-1.27074          35.6719       NO       
     ROUND_NOTCHED_SPECIMEN_TEST-1.27075          32.9488       NO       
     ROUND_NOTCHED_SPECIMEN_TEST-1.27076          38.3397       NO       
     ROUND_NOTCHED_SPECIMEN_TEST-1.27077          36.4367       NO       
     ROUND_NOTCHED_SPECIMEN_TEST-1.27078          35.2514       NO       
     ROUND_NOTCHED_SPECIMEN_TEST-1.27079          37.2928       NO       
     ROUND_NOTCHED_SPECIMEN_TEST-1.27080          35.9461       NO       
     ROUND_NOTCHED_SPECIMEN_TEST-1.27081          34.8242       NO       
     ROUND_NOTCHED_SPECIMEN_TEST-1.27083          34.2542       NO       
     ROUND_NOTCHED_SPECIMEN_TEST-1.27084          36.2762       NO       
     ROUND_NOTCHED_SPECIMEN_TEST-1.27085          40.3691       NO       
     ROUND_NOTCHED_SPECIMEN_TEST-1.27086          39.5002       NO       
     ROUND_NOTCHED_SPECIMEN_TEST-1.27087          36.3977       NO       
     ROUND_NOTCHED_SPECIMEN_TEST-1.27088          43.3207       NO       
     ROUND_NOTCHED_SPECIMEN_TEST-1.27089          37.4523       NO       
     ROUND_NOTCHED_SPECIMEN_TEST-1.27090          41.7858       NO       
     ROUND_NOTCHED_SPECIMEN_TEST-1.27091            40.25       NO       
     ROUND_NOTCHED_SPECIMEN_TEST-1.27092          40.3069       NO       
     ROUND_NOTCHED_SPECIMEN_TEST-1.27093          36.3623       NO       
     ROUND_NOTCHED_SPECIMEN_TEST-1.27094          44.5585       NO       
     ROUND_NOTCHED_SPECIMEN_TEST-1.27095          35.4667       NO       
     ROUND_NOTCHED_SPECIMEN_TEST-1.27096           36.261       NO       
     ROUND_NOTCHED_SPECIMEN_TEST-1.27097          35.0274       NO       
     ROUND_NOTCHED_SPECIMEN_TEST-1.27098           35.252       NO       
     ROUND_NOTCHED_SPECIMEN_TEST-1.27099          35.8937       NO       
     ROUND_NOTCHED_SPECIMEN_TEST-1.27101          38.1894       NO       
     ROUND_NOTCHED_SPECIMEN_TEST-1.27102          37.4717       NO       
     ROUND_NOTCHED_SPECIMEN_TEST-1.27103          38.6188       NO       
     ROUND_NOTCHED_SPECIMEN_TEST-1.27104          34.7486       NO       
     ROUND_NOTCHED_SPECIMEN_TEST-1.27105          44.7346       NO       
     ROUND_NOTCHED_SPECIMEN_TEST-1.27106          36.8349       NO       
     ROUND_NOTCHED_SPECIMEN_TEST-1.27107          35.5385       NO       
     ROUND_NOTCHED_SPECIMEN_TEST-1.27108          35.4949       NO       
     ROUND_NOTCHED_SPECIMEN_TEST-1.27109          35.0337       NO       
     ROUND_NOTCHED_SPECIMEN_TEST-1.27110          38.7969       NO       
     ROUND_NOTCHED_SPECIMEN_TEST-1.27111          41.1285       NO       
     ROUND_NOTCHED_SPECIMEN_TEST-1.27112          38.4557       NO       
     ROUND_NOTCHED_SPECIMEN_TEST-1.27113          41.7966       NO       
     ROUND_NOTCHED_SPECIMEN_TEST-1.27114          43.8827       NO       
     ROUND_NOTCHED_SPECIMEN_TEST-1.27115          34.8036       NO       
     ROUND_NOTCHED_SPECIMEN_TEST-1.27116          43.9941       NO       
     ROUND_NOTCHED_SPECIMEN_TEST-1.27117          38.8209       NO       
     ROUND_NOTCHED_SPECIMEN_TEST-1.27118          43.2312       NO       
     ROUND_NOTCHED_SPECIMEN_TEST-1.27119          35.9472       NO       
     ROUND_NOTCHED_SPECIMEN_TEST-1.27120          33.5568       NO       
     ROUND_NOTCHED_SPECIMEN_TEST-1.27121           40.404       NO       
     ROUND_NOTCHED_SPECIMEN_TEST-1.27122          38.4294       NO       
     ROUND_NOTCHED_SPECIMEN_TEST-1.27123          40.7439       NO       
     ROUND_NOTCHED_SPECIMEN_TEST-1.27124           37.795       NO       
     ROUND_NOTCHED_SPECIMEN_TEST-1.27125          35.5019       NO       
     ROUND_NOTCHED_SPECIMEN_TEST-1.27127          35.9085       NO       
     ROUND_NOTCHED_SPECIMEN_TEST-1.27128          37.9198       NO       
     ROUND_NOTCHED_SPECIMEN_TEST-1.27129          37.9455       NO       
     ROUND_NOTCHED_SPECIMEN_TEST-1.27130          39.0713       NO       
     ROUND_NOTCHED_SPECIMEN_TEST-1.27131          38.5063       NO       
     ROUND_NOTCHED_SPECIMEN_TEST-1.27133          42.0343       NO       
     ROUND_NOTCHED_SPECIMEN_TEST-1.27136          36.7969       NO       
     ROUND_NOTCHED_SPECIMEN_TEST-1.27137          35.5647       NO       
     ROUND_NOTCHED_SPECIMEN_TEST-1.27138          44.7222       NO       
     ROUND_NOTCHED_SPECIMEN_TEST-1.27139          38.0513       NO       
     ROUND_NOTCHED_SPECIMEN_TEST-1.27141          34.4281       NO       
     ROUND_NOTCHED_SPECIMEN_TEST-1.27142          36.5495       NO       
     ROUND_NOTCHED_SPECIMEN_TEST-1.27143          35.3417       NO       
     ROUND_NOTCHED_SPECIMEN_TEST-1.27145          40.8918       NO       
     ROUND_NOTCHED_SPECIMEN_TEST-1.27146          35.3295       NO       
     ROUND_NOTCHED_SPECIMEN_TEST-1.27147          39.4254       NO       
     ROUND_NOTCHED_SPECIMEN_TEST-1.27150          42.3414       NO       
     ROUND_NOTCHED_SPECIMEN_TEST-1.27151          38.2768       NO       
     ROUND_NOTCHED_SPECIMEN_TEST-1.27152          41.1461       NO       
     ROUND_NOTCHED_SPECIMEN_TEST-1.27153          34.0238       NO       
     ROUND_NOTCHED_SPECIMEN_TEST-1.27154          34.1661       NO       
     ROUND_NOTCHED_SPECIMEN_TEST-1.27157           38.841       NO       
     ROUND_NOTCHED_SPECIMEN_TEST-1.27158          38.2058       NO       
     ROUND_NOTCHED_SPECIMEN_TEST-1.27161          40.4703       NO       
     ROUND_NOTCHED_SPECIMEN_TEST-1.27162          36.5586       NO       
     ROUND_NOTCHED_SPECIMEN_TEST-1.27163          42.2175       NO       
     ROUND_NOTCHED_SPECIMEN_TEST-1.27164          35.0984       NO       
     ROUND_NOTCHED_SPECIMEN_TEST-1.27165          36.1524       NO       
     ROUND_NOTCHED_SPECIMEN_TEST-1.27174          42.1761       NO       
     ROUND_NOTCHED_SPECIMEN_TEST-1.27175          42.8688       NO       
     ROUND_NOTCHED_SPECIMEN_TEST-1.27176          44.8475       NO       
     ROUND_NOTCHED_SPECIMEN_TEST-1.27178          41.3578       NO       
     ROUND_NOTCHED_SPECIMEN_TEST-1.27180          43.9385       NO       
     ROUND_NOTCHED_SPECIMEN_TEST-1.27185          37.8528       NO       
     ROUND_NOTCHED_SPECIMEN_TEST-1.27187          39.2149       NO       
     ROUND_NOTCHED_SPECIMEN_TEST-1.27188           37.717       NO       
     ROUND_NOTCHED_SPECIMEN_TEST-1.27189          41.3568       NO       
     ROUND_NOTCHED_SPECIMEN_TEST-1.27191          38.6959       NO       
     ROUND_NOTCHED_SPECIMEN_TEST-1.27192          37.5818       NO       
     ROUND_NOTCHED_SPECIMEN_TEST-1.27193          43.5623       NO       
     ROUND_NOTCHED_SPECIMEN_TEST-1.27194          36.5193       NO       
     ROUND_NOTCHED_SPECIMEN_TEST-1.27195          39.0399       NO       
     ROUND_NOTCHED_SPECIMEN_TEST-1.27196          43.9366       NO       
     ROUND_NOTCHED_SPECIMEN_TEST-1.27198          36.2532       NO       
     ROUND_NOTCHED_SPECIMEN_TEST-1.27199          38.8111       NO       
     ROUND_NOTCHED_SPECIMEN_TEST-1.27203          44.1826       NO       
     ROUND_NOTCHED_SPECIMEN_TEST-1.27204           39.309       NO       
     ROUND_NOTCHED_SPECIMEN_TEST-1.27206          38.0777       NO       
     ROUND_NOTCHED_SPECIMEN_TEST-1.27207          38.0963       NO       
     ROUND_NOTCHED_SPECIMEN_TEST-1.27208          38.2068       NO       
     ROUND_NOTCHED_SPECIMEN_TEST-1.27211          40.2965       NO       
     ROUND_NOTCHED_SPECIMEN_TEST-1.27216          38.4013       NO       
     ROUND_NOTCHED_SPECIMEN_TEST-1.27217          40.4253       NO       
     ROUND_NOTCHED_SPECIMEN_TEST-1.27218          37.8729       NO       
     ROUND_NOTCHED_SPECIMEN_TEST-1.27219          40.4012       NO       
     ROUND_NOTCHED_SPECIMEN_TEST-1.27221          37.1522       NO       
     ROUND_NOTCHED_SPECIMEN_TEST-1.27222          37.7134       NO       
     ROUND_NOTCHED_SPECIMEN_TEST-1.27225          37.2028       NO       
     ROUND_NOTCHED_SPECIMEN_TEST-1.27227          35.5808       NO       
     ROUND_NOTCHED_SPECIMEN_TEST-1.27229          41.3259       NO       
     ROUND_NOTCHED_SPECIMEN_TEST-1.27230          39.5604       NO       
     ROUND_NOTCHED_SPECIMEN_TEST-1.27231          35.8305       NO       
     ROUND_NOTCHED_SPECIMEN_TEST-1.27235          41.2305       NO       
     ROUND_NOTCHED_SPECIMEN_TEST-1.27237          36.7637       NO       
     ROUND_NOTCHED_SPECIMEN_TEST-1.27238           36.122       NO       
     ROUND_NOTCHED_SPECIMEN_TEST-1.27239              38.       NO       
     ROUND_NOTCHED_SPECIMEN_TEST-1.27241          40.5149       NO       
     ROUND_NOTCHED_SPECIMEN_TEST-1.27242          44.1743       NO       
     ROUND_NOTCHED_SPECIMEN_TEST-1.27245          39.7047       NO       
     ROUND_NOTCHED_SPECIMEN_TEST-1.27246          43.0849       NO       
     ROUND_NOTCHED_SPECIMEN_TEST-1.27247          41.7172       NO       
     ROUND_NOTCHED_SPECIMEN_TEST-1.27249          40.4299       NO       
     ROUND_NOTCHED_SPECIMEN_TEST-1.27253          41.7714       NO       
     ROUND_NOTCHED_SPECIMEN_TEST-1.27254          43.1079       NO       
     ROUND_NOTCHED_SPECIMEN_TEST-1.27255          40.9538       NO       
     ROUND_NOTCHED_SPECIMEN_TEST-1.27264          44.6927       NO       
     ROUND_NOTCHED_SPECIMEN_TEST-1.27267          42.0315       NO       
     ROUND_NOTCHED_SPECIMEN_TEST-1.27269          39.5875       NO       
     ROUND_NOTCHED_SPECIMEN_TEST-1.27270           38.396       NO       
     ROUND_NOTCHED_SPECIMEN_TEST-1.27272           41.459       NO       
     ROUND_NOTCHED_SPECIMEN_TEST-1.27273          44.5753       NO       
     ROUND_NOTCHED_SPECIMEN_TEST-1.27274          41.9517       NO       
     ROUND_NOTCHED_SPECIMEN_TEST-1.27275           44.033       NO       
     ROUND_NOTCHED_SPECIMEN_TEST-1.27279          39.8488       NO       
     ROUND_NOTCHED_SPECIMEN_TEST-1.27280          38.7072       NO       
     ROUND_NOTCHED_SPECIMEN_TEST-1.27284          38.2074       NO       
     ROUND_NOTCHED_SPECIMEN_TEST-1.27287          38.6246       NO       
     ROUND_NOTCHED_SPECIMEN_TEST-1.27293          39.6741       NO       
     ROUND_NOTCHED_SPECIMEN_TEST-1.27294            40.16       NO       
     ROUND_NOTCHED_SPECIMEN_TEST-1.27295          39.9726       NO       
     ROUND_NOTCHED_SPECIMEN_TEST-1.27297          41.3123       NO       
     ROUND_NOTCHED_SPECIMEN_TEST-1.27299          42.2086       NO       
     ROUND_NOTCHED_SPECIMEN_TEST-1.27300          39.3553       NO       
     ROUND_NOTCHED_SPECIMEN_TEST-1.27301          40.9507       NO       
     ROUND_NOTCHED_SPECIMEN_TEST-1.27304          42.7549       NO       
     ROUND_NOTCHED_SPECIMEN_TEST-1.27308          40.9992       NO       
     ROUND_NOTCHED_SPECIMEN_TEST-1.27309          44.8997       NO       
     ROUND_NOTCHED_SPECIMEN_TEST-1.27322          44.0874       NO       
     ROUND_NOTCHED_SPECIMEN_TEST-1.27323          41.2172       NO       
     ROUND_NOTCHED_SPECIMEN_TEST-1.27324          39.2941       NO       
     ROUND_NOTCHED_SPECIMEN_TEST-1.27326          41.5359       NO       
     ROUND_NOTCHED_SPECIMEN_TEST-1.27327          40.9245       NO       
     ROUND_NOTCHED_SPECIMEN_TEST-1.27330          42.5229       NO       
     ROUND_NOTCHED_SPECIMEN_TEST-1.27331          39.8848       NO       
     ROUND_NOTCHED_SPECIMEN_TEST-1.27332          40.1809       NO       
     ROUND_NOTCHED_SPECIMEN_TEST-1.27333          42.6319       NO       
     ROUND_NOTCHED_SPECIMEN_TEST-1.27334          41.0009       NO       
     ROUND_NOTCHED_SPECIMEN_TEST-1.27343          43.4721       NO       
     ROUND_NOTCHED_SPECIMEN_TEST-1.27354          42.5378       NO       
     ROUND_NOTCHED_SPECIMEN_TEST-1.27355          43.5554       NO       
     ROUND_NOTCHED_SPECIMEN_TEST-1.27361          41.2226       NO       
     ROUND_NOTCHED_SPECIMEN_TEST-1.27362          42.4064       NO       
     ROUND_NOTCHED_SPECIMEN_TEST-1.27366          41.4388       NO       
     ROUND_NOTCHED_SPECIMEN_TEST-1.27370          42.3568       NO       
     ROUND_NOTCHED_SPECIMEN_TEST-1.27379           44.337       NO       
     ROUND_NOTCHED_SPECIMEN_TEST-1.27380          41.5054       NO       
     ROUND_NOTCHED_SPECIMEN_TEST-1.27385          43.7655       NO       
     ROUND_NOTCHED_SPECIMEN_TEST-1.27386          44.3631       NO       
     ROUND_NOTCHED_SPECIMEN_TEST-1.27391          43.6422       NO       
     ROUND_NOTCHED_SPECIMEN_TEST-1.27395          43.0803       NO       
     ROUND_NOTCHED_SPECIMEN_TEST-1.27497          32.9781       NO       
     ROUND_NOTCHED_SPECIMEN_TEST-1.27498          37.6482       NO       
     ROUND_NOTCHED_SPECIMEN_TEST-1.27500          38.9621       NO       
     ROUND_NOTCHED_SPECIMEN_TEST-1.27501          32.8401       NO       
     ROUND_NOTCHED_SPECIMEN_TEST-1.27503          40.4945       NO       
     ROUND_NOTCHED_SPECIMEN_TEST-1.27505          35.0298       NO       
     ROUND_NOTCHED_SPECIMEN_TEST-1.27506          37.3897       NO       
     ROUND_NOTCHED_SPECIMEN_TEST-1.27507          40.7407       NO       
     ROUND_NOTCHED_SPECIMEN_TEST-1.27508           38.936       NO       
     ROUND_NOTCHED_SPECIMEN_TEST-1.27509          34.4951       NO       
     ROUND_NOTCHED_SPECIMEN_TEST-1.27510          33.2292       NO       
     ROUND_NOTCHED_SPECIMEN_TEST-1.27511          41.2727       NO       
     ROUND_NOTCHED_SPECIMEN_TEST-1.27512          42.4213       NO       
     ROUND_NOTCHED_SPECIMEN_TEST-1.27513          42.6209       NO       
     ROUND_NOTCHED_SPECIMEN_TEST-1.27514          36.8774       NO       
     ROUND_NOTCHED_SPECIMEN_TEST-1.27516          35.4167       NO       
     ROUND_NOTCHED_SPECIMEN_TEST-1.27517          38.9538       NO       
     ROUND_NOTCHED_SPECIMEN_TEST-1.27518          43.3365       NO       
     ROUND_NOTCHED_SPECIMEN_TEST-1.27519          36.0297       NO       
     ROUND_NOTCHED_SPECIMEN_TEST-1.27521          37.0312       NO       
  
  
  *output, field, numberinterval=100
  *output, history, frequency=0
  *Step, name=Step-1, nlgeom=YES
  *Step, name=Step-1, nlgeom=YES
  *dynamictemperature-displacement, explicit
  *boundary
  *boundary
  *boundary, amplitude=AMP-1
  *boundary
  *boundary
  *output, field, numberinterval=100
  *nodeoutput
  *elementoutput, directions=YES
  *output, history, frequency=0
  *endstep

 ***WARNING: OUTPUT REQUEST E IS NOT AVAILABLE IN A NONLINEAR STEP -- LE (LOG 
             STRAIN) WILL BE OUTPUT INSTEAD.
  *Step, name=Step-1, nlgeom=YES
  *dynamictemperature-displacement, explicit
  *boundary
  *boundary
  *boundary, amplitude=AMP-1
  *boundary
  *boundary
  *endstep



                            P R O B L E M   S I Z E


          NUMBER OF ELEMENTS IS                                 39858
          NUMBER OF NODES IS                                    43301
          NUMBER OF NODES DEFINED BY THE USER                   43301
          TOTAL NUMBER OF VARIABLES IN THE MODEL               173204
          (DEGREES OF FREEDOM PLUS MAX NO. OF ANY LAGRANGE MULTIPLIER
           VARIABLES. INCLUDE *PRINT,SOLVE=YES TO GET THE ACTUAL NUMBER.)



                              END OF USER INPUT PROCESSING



     JOB TIME SUMMARY
       USER TIME (SEC)      =      1.0    
       SYSTEM TIME (SEC)    =     0.10    
       TOTAL CPU TIME (SEC) =      1.1    
       WALLCLOCK TIME (SEC) =            2
