*Heading
** Job name: vumat_cube_elastoplastic_srt Model name: vumat_cube_elastoplastic_srt
** Generated by: Abaqus/CAE 2023.HF4
*Preprint, echo=NO, model=NO, history=NO, contact=NO
**
** PARTS
**
*Part, name=cube
*Node
      1, 0.00999999978, 0.00999999978, 0.00999999978
      2, 0.00999999978, 0.00749999983, 0.00999999978
      3, 0.00999999978, 0.00499999989, 0.00999999978
      4, 0.00999999978, 0.00249999994, 0.00999999978
      5, 0.00999999978,           0., 0.00999999978
      6, 0.00999999978, 0.00999999978, 0.00749999983
      7, 0.00999999978, 0.00749999983, 0.00749999983
      8, 0.00999999978, 0.00499999989, 0.00749999983
      9, 0.00999999978, 0.00249999994, 0.00749999983
     10, 0.00999999978,           0., 0.00749999983
     11, 0.00999999978, 0.00999999978, 0.00499999989
     12, 0.00999999978, 0.00749999983, 0.00499999989
     13, 0.00999999978, 0.00499999989, 0.00499999989
     14, 0.00999999978, 0.00249999994, 0.00499999989
     15, 0.00999999978,           0., 0.00499999989
     16, 0.00999999978, 0.00999999978, 0.00249999994
     17, 0.00999999978, 0.00749999983, 0.00249999994
     18, 0.00999999978, 0.00499999989, 0.00249999994
     19, 0.00999999978, 0.00249999994, 0.00249999994
     20, 0.00999999978,           0., 0.00249999994
** ... 105 like lines cut
*Element, type=C3D8T
 1,  26,  27,  32,  31,   1,   2,   7,   6
 2,  27,  28,  33,  32,   2,   3,   8,   7
 3,  28,  29,  34,  33,   3,   4,   9,   8
 4,  29,  30,  35,  34,   4,   5,  10,   9
 5,  31,  32,  37,  36,   6,   7,  12,  11
 6,  32,  33,  38,  37,   7,   8,  13,  12
 7,  33,  34,  39,  38,   8,   9,  14,  13
 8,  34,  35,  40,  39,   9,  10,  15,  14
 9,  36,  37,  42,  41,  11,  12,  17,  16
10,  37,  38,  43,  42,  12,  13,  18,  17
11,  38,  39,  44,  43,  13,  14,  19,  18
12,  39,  40,  45,  44,  14,  15,  20,  19
13,  41,  42,  47,  46,  16,  17,  22,  21
14,  42,  43,  48,  47,  17,  18,  23,  22
15,  43,  44,  49,  48,  18,  19,  24,  23
16,  44,  45,  50,  49,  19,  20,  25,  24
17,  51,  52,  57,  56,  26,  27,  32,  31
18,  52,  53,  58,  57,  27,  28,  33,  32
19,  53,  54,  59,  58,  28,  29,  34,  33
20,  54,  55,  60,  59,  29,  30,  35,  34
** ... 44 like lines cut
*Nset, nset=Set-1, generate
   1,  125,    1
*Elset, elset=Set-1, generate
  1,  64,   1
** Section: Section-1-Whole specimen
*Solid Section, elset=Set-1, material=steel
,
*End Part
**  
**
** ASSEMBLY
**
*Assembly, name=Assembly
**  
*Instance, name=cube-1, part=cube
*End Instance
**  
*Nset, nset=hSurface, instance=cube-1, generate
  1,  25,   1
*Elset, elset=hSurface, instance=cube-1, generate
  1,  16,   1
*Nset, nset=top_side, instance=cube-1, generate
   1,  121,    5
*Elset, elset=top_side, instance=cube-1, generate
  1,  61,   4
*Nset, nset=xsymm_side, instance=cube-1, generate
 101,  125,    1
*Elset, elset=xsymm_side, instance=cube-1, generate
 49,  64,   1
*Nset, nset=ysymm_side, instance=cube-1, generate
   5,  125,    5
*Elset, elset=ysymm_side, instance=cube-1, generate
  4,  64,   4
*Nset, nset=zsymm_side, instance=cube-1
  21,  22,  23,  24,  25,  46,  47,  48,  49,  50,  71,  72,  73,  74,  75,  96
  97,  98,  99, 100, 121, 122, 123, 124, 125
*Elset, elset=zsymm_side, instance=cube-1
 13, 14, 15, 16, 29, 30, 31, 32, 45, 46, 47, 48, 61, 62, 63, 64
*End Assembly
*Amplitude, name=AMP-1
             0.,              0.,              1.,              1.
** 
** MATERIALS
** 
*Material, name=steel
*Density
7850.,
*Depvar
     16,
*User Material, constants=9, type=THERMAL
 1.27e-08,     2e-06,     8.314,      300.,   5.1e+29, 2.084e+21,    28600.,   -19576.
   -60000.,
*User Material, constants=168, type=MECHANICAL
 2.1e+11,         0.3,          0.,          0.,          0.,          0.,          0.,          0.
 8.39646e+08,          0., 8.80025e+08,      0.0003, 9.06975e+08,      0.0005, 9.26275e+08,       0.001
 9.26275e+08,       0.002, 9.39393e+08,       0.003, 9.49756e+08,       0.004, 9.58495e+08,       0.005
 9.66134e+08,       0.006,  9.7296e+08,       0.007,  9.7915e+08,       0.008, 9.84823e+08,       0.009
 9.90061e+08,        0.01, 1.02747e+09,        0.02, 1.04975e+09,        0.03, 1.06431e+09,        0.04
 1.07441e+09,        0.05, 1.08181e+09,        0.06, 1.08749e+09,        0.07, 1.09206e+09,        0.08
 1.09587e+09,        0.09, 1.09914e+09,         0.1, 1.11118e+09,        0.15, 1.11963e+09,         0.2
 1.12625e+09,        0.25, 1.13172e+09,         0.3, 1.13638e+09,        0.35, 1.14044e+09,         0.4
 1.14405e+09,        0.45,  1.1473e+09,         0.5, 1.15025e+09,        0.55, 1.15296e+09,         0.6
 1.15546e+09,        0.65, 1.15779e+09,         0.7, 1.15996e+09,        0.75,   1.162e+09,         0.8
 1.16392e+09,        0.85, 1.16574e+09,         0.9, 1.16746e+09,        0.95, 1.16911e+09,          1.
 1.17067e+09,        1.05, 1.17216e+09,         1.1,  1.1736e+09,        1.15, 1.17497e+09,         1.2
 1.17629e+09,        1.25, 1.17756e+09,         1.3, 1.17879e+09,        1.35, 1.17997e+09,         1.4
 1.18112e+09,        1.45, 1.18222e+09,         1.5,  1.1833e+09,        1.55, 1.18434e+09,         1.6
 1.18535e+09,        1.65, 1.18633e+09,         1.7, 1.18728e+09,        1.75, 1.18821e+09,         1.8
 1.18912e+09,        1.85,    1.19e+09,         1.9, 1.19086e+09,        1.95,  1.1917e+09,          2.
 1.19252e+09,        2.05, 1.19332e+09,         2.1,  1.1941e+09,        2.15, 1.19487e+09,         2.2
 1.19562e+09,        2.25, 1.19635e+09,         2.3, 1.19707e+09,        2.35, 1.19777e+09,         2.4
 1.19847e+09,        2.45, 1.19914e+09,         2.5, 1.19981e+09,        2.55, 1.20046e+09,         2.6
  1.2011e+09,        2.65, 1.20173e+09,         2.7, 1.20235e+09,        2.75, 1.20296e+09,         2.8
 1.20355e+09,        2.85, 1.20414e+09,         2.9, 1.20472e+09,        2.95, 1.20529e+09,          3.
** ----------------------------------------------------------------
** 
** STEP: Step-1
** 
*Step, name=Step-1, nlgeom=YES
*Dynamic Temperature-displacement, Explicit
, 1.
*Bulk Viscosity
0.06, 1.2
** 
** BOUNDARY CONDITIONS
** 
** Name: hydrogen_concentration Type: Temperature
*Boundary
top_side, 11, 11, 1.
** Name: top_displcement Type: Displacement/Rotation
*Boundary, amplitude=AMP-1
top_side, 2, 2, 0.002
** Name: xsymm Type: Displacement/Rotation
*Boundary
xsymm_side, 1, 1
** Name: ysymm Type: Displacement/Rotation
*Boundary
ysymm_side, 2, 2
** Name: zsymm Type: Displacement/Rotation
*Boundary
zsymm_side, 3, 3
** 
** OUTPUT REQUESTS
** 
*Restart, write, number interval=1, time marks=NO
** 
** FIELD OUTPUT: F-Output-1
** 
*Output, field, number interval=100
*Node Output
NT, RF, RFL, U
*Element Output, directions=YES
HFL, LE, PE, PEEQ, S, SDV, TEMP
*Output, history, frequency=0
*End Step
