1

   Abaqus 2023.HF4                                  Date 01-Jul-2024   Time 12:17:03
   For use by AALTO UNIVERSITY under license from Dassault Systemes or its subsidiary.

                                                                                 
                                                                                 
 STEP    1     INCREMENT     1     STEP TIME    0.00    


                        S T E P       1     C O U P L E D - T E M P E R A T U R E - D I S P L A C E M E N T   A N A L Y S I S


                                                                                          

     AUTOMATIC TIME CONTROL WITH -
          A SUGGESTED INITIAL TIME INCREMENT OF                 10.0    
          AND A TOTAL TIME PERIOD OF                           1.000E+03
          THE MINIMUM TIME INCREMENT ALLOWED IS                1.000E-02
          THE MAXIMUM TIME INCREMENT ALLOWED IS                 10.0    

          CREEP AND SWELLING EFFECTS ARE OMITTED IN THIS STEP

     THE SIZE OF THE TIME INCREMENT IS CONTROLLED BY -
          THE TEMPERATURE CHANGE PER INCREMENT NOT EXCEEDING            1.00    
          THE RATE DEPENDENCY WILL BE CONSIDERED IN THIS STEP

          CREEP AND SWELLING EFFECTS WILL BE IGNORED.

 CONVERGENCE TOLERANCE PARAMETERS FOR FORCE    
     CRITERION FOR RESIDUAL FORCE     FOR A NONLINEAR PROBLEM          5.000E-03
     CRITERION FOR DISP.    CORRECTION IN A NONLINEAR PROBLEM          1.000E-02
     INITIAL VALUE OF TIME AVERAGE FORCE                               1.000E-02
     AVERAGE FORCE     IS TIME AVERAGE FORCE    
     ALTERNATE CRIT. FOR RESIDUAL FORCE     FOR A NONLINEAR PROBLEM    2.000E-02
     CRITERION FOR ZERO FORCE     RELATIVE TO TIME AVRG. FORCE         1.000E-05
     CRITERION FOR RESIDUAL FORCE     WHEN THERE IS ZERO FLUX          1.000E-05
     CRITERION FOR DISP.    CORRECTION WHEN THERE IS ZERO FLUX         1.000E-03
     CRITERION FOR RESIDUAL FORCE     FOR A LINEAR INCREMENT           1.000E-08
     FIELD CONVERSION RATIO                                             1.00    
     CRITERION FOR ZERO FORCE     REL. TO TIME AVRG. MAX. FORCE        1.000E-05
     CRITERION FOR ZERO DISP.    RELATIVE TO CHARACTERISTIC LENGTH     1.000E-08

 CONVERGENCE TOLERANCE PARAMETERS FOR HEAT FLUX
     CRITERION FOR RESIDUAL HEAT FLUX FOR A NONLINEAR PROBLEM          5.000E-03
     CRITERION FOR TEMP.    CORRECTION IN A NONLINEAR PROBLEM          1.000E-02
     INITIAL VALUE OF TIME AVERAGE HEAT FLUX                           1.000E-02
     AVERAGE HEAT FLUX IS TIME AVERAGE HEAT FLUX
     ALTERNATE CRIT. FOR RESIDUAL HEAT FLUX FOR A NONLINEAR PROBLEM    2.000E-02
     CRITERION FOR ZERO HEAT FLUX RELATIVE TO TIME AVRG. HEAT FLUX     1.000E-05
     CRITERION FOR RESIDUAL HEAT FLUX WHEN THERE IS ZERO FLUX          1.000E-05
     CRITERION FOR TEMP.    CORRECTION WHEN THERE IS ZERO FLUX         1.000E-03
     CRITERION FOR RESIDUAL HEAT FLUX FOR A LINEAR INCREMENT           1.000E-08
     FIELD CONVERSION RATIO                                             1.00    
     CRITERION FOR ZERO HEAT FLUX REL. TO TIME AVRG. MAX. HEAT FLUX    1.000E-05

     VOLUMETRIC STRAIN COMPATIBILITY TOLERANCE FOR HYBRID SOLIDS       1.000E-05
     AXIAL STRAIN COMPATIBILITY TOLERANCE FOR HYBRID BEAMS             1.000E-05
     TRANS. SHEAR STRAIN COMPATIBILITY TOLERANCE FOR HYBRID BEAMS      1.000E-05
     SOFT CONTACT CONSTRAINT COMPATIBILITY TOLERANCE FOR P>P0          5.000E-03
     SOFT CONTACT CONSTRAINT COMPATIBILITY TOLERANCE FOR P=0.0         0.100    
     CONTACT FORCE ERROR TOLERANCE FOR CONVERT SDI=YES                 1.00    
     DISPLACEMENT COMPATIBILITY TOLERANCE FOR DCOUP ELEMENTS           1.000E-05
     ROTATION COMPATIBILITY TOLERANCE FOR DCOUP ELEMENTS               1.000E-05

 EQUILIBRIUM WILL BE CHECKED FOR SEVERE DISCONTINUITY ITERATIONS

 TIME INCREMENTATION CONTROL PARAMETERS:
     FIRST EQUILIBRIUM ITERATION FOR CONSECUTIVE DIVERGENCE CHECK              4
     EQUILIBRIUM ITERATION AT WHICH LOG. CONVERGENCE RATE CHECK BEGINS         8
     EQUILIBRIUM ITERATION AFTER WHICH ALTERNATE RESIDUAL IS USED              9
     MAXIMUM EQUILIBRIUM ITERATIONS ALLOWED                                   16
     EQUILIBRIUM ITERATION COUNT FOR CUT-BACK IN NEXT INCREMENT               10
     MAXIMUM EQUILIB. ITERS IN TWO INCREMENTS FOR TIME INCREMENT INCREASE      4
     MAXIMUM ITERATIONS FOR SEVERE DISCONTINUITIES                            50
     MAXIMUM ATTEMPTS ALLOWED IN AN INCREMENT                                  5
     MAXIMUM DISCON. ITERS IN TWO INCREMENTS FOR TIME INCREMENT INCREASE      50
     MAXIMUM CONTACT AUGMENTATIONS FOR *SURFACE BEHAVIOR,AUGMENTED LAGRANGE   50
     CONSECUTIVE INCS MEETING TIME INTEG. TOL. FOR TIME INC. INCREASE          3
     CUT-BACK FACTOR AFTER DIVERGENCE                                 0.2500    
     CUT-BACK FACTOR FOR TOO SLOW CONVERGENCE                         0.5000    
     CUT-BACK FACTOR AFTER TOO MANY EQUILIBRIUM ITERATIONS            0.7500    
     CUT-BACK FACTOR AFTER TOO MANY SEVERE DISCONTINUITY ITERATIONS   0.2500    
     CUT-BACK FACTOR AFTER PROBLEMS IN ELEMENT ASSEMBLY               0.2500    
     INCREASE FACTOR AFTER TWO INCREMENTS THAT CONVERGE QUICKLY        1.500    
     MAX. TIME INCREMENT INCREASE FACTOR ALLOWED                       1.500    
     MAX. TIME INCREMENT INCREASE FACTOR ALLOWED (DYNAMICS)            1.250    
     MAX. TIME INCREMENT INCREASE FACTOR ALLOWED (DIFFUSION)           2.000    
     MINIMUM TIME INCREMENT RATIO FOR EXTRAPOLATION TO OCCUR          0.1000    
     CUT-BACK FACTOR WHEN TIME INTEGRATION ACCURACY TOL. EXCEEDED     0.8500    
     MAX. RATIO OF TIME INTEG. MEASURE TO TOL. FOR TIME INC. INCREASE 0.7500    
     INCREASE FACTOR FOR TIME INCREMENT WHEN POSSIBLE                 0.8000    
     MIN. TIME INC. INCREASE FACTOR IN LINEAR TRANSIENT PROBLEMS      0.9500    
     MAX. RATIO OF TIME INCREMENT TO STABILITY LIMIT                   1.000    
     FRACTION OF STABILITY LIMIT FOR NEW TIME INCREMENT               0.9500    
     TIME INCREMENT INCREASE FACTOR BEFORE A TIME POINT                1.000    
     GLOBAL STABILIZATION CONTROL IS NOT USED

          PRINT OF INCREMENT NUMBER, TIME, ETC., EVERY    1  INCREMENTS

     THE MAXIMUM NUMBER OF INCREMENTS IN THIS STEP IS                  100000

          LARGE DISPLACEMENT THEORY WILL BE USED

          UNSYMMETRIC MATRIX STORAGE AND SOLUTION WILL BE USED

     LINEAR EXTRAPOLATION WILL BE USED

     CHARACTERISTIC ELEMENT LENGTH     2.273E-04

     DETAILS REGARDING ACTUAL SOLUTION WAVEFRONT REQUESTED

     DETAILED OUTPUT OF DIAGNOSTICS TO DATABASE REQUESTED

     PRINT OF INCREMENT NUMBER, TIME, ETC., TO THE MESSAGE FILE EVERY     1  INCREMENTS

     ELEMENT OPERATIONS WILL BE CARRIED OUT IN PARALLEL USING   2 THREADS ON 1 DOMAIN

     PARALLEL CONTACT TRACKING ENABLED


     COLLECTING MODEL CONSTRAINT INFORMATION FOR OVERCONSTRAINT CHECKS

     COLLECTING STEP CONSTRAINT INFORMATION FOR OVERCONSTRAINT CHECKS


  INCREMENT     1 STARTS. ATTEMPT NUMBER  1, TIME INCREMENT   10.0    
 
     INITIAL ELEMENT LOAD BALANCE
            DOMAIN    1     THREAD    NUMBER OF ELEMENTS
                              1            27328
                              2            28040
 
	UNSYMMETRIC NEW DIRECT SPARSE SOLVER RUNNING ON
 	1 HOST x 1 MPI RANK PER HOST x 2 THREADS PER RANK
        NUMBER OF EQUATIONS:  193104
        NUMBER OF RHS:        1
        NUMBER OF FLOPS:      3.674e+11
        SOLVER ELAPSED TIME:  4.6s

               CONVERGENCE CHECKS FOR EQUILIBRIUM ITERATION     1


 AVERAGE FORCE                      7.572E-02   TIME AVG. FORCE       7.572E-02
 LARGEST SCALED RESIDUAL FORCE      1.425E-03   AT NODE       4140   DOF  3
   INSTANCE: NDBR2P5-M-1                                                                     
  CORRESPONDING RESIDUAL FORCE      1.425E-03
 LARGEST INCREMENT OF DISP.         1.400E-05   AT NODE        706   DOF  2
   INSTANCE: NDBR2P5-M-1                                                                     
 LARGEST CORRECTION TO DISP.        1.400E-05   AT NODE        706   DOF  2
   INSTANCE: NDBR2P5-M-1                                                                     
          FORCE     EQUILIBRIUM NOT ACHIEVED WITHIN TOLERANCE.

 AVERAGE HEAT FLUX                   0.00       TIME AVG. HEAT FLUX   1.000E-02
 ALL HEAT FLUX RESIDUALS ARE ZERO
 ALL TEMP.    INCREMENTS ARE ZERO
 ALL CORRECTION TO TEMP.    ARE ZERO
          THERE IS ZERO HEAT FLUX EVERYWHERE
 
	UNSYMMETRIC NEW DIRECT SPARSE SOLVER RUNNING ON
 	1 HOST x 1 MPI RANK PER HOST x 2 THREADS PER RANK
        NUMBER OF EQUATIONS:  193104
        NUMBER OF RHS:        1
        NUMBER OF FLOPS:      3.674e+11
        SOLVER ELAPSED TIME:  4.5s

               CONVERGENCE CHECKS FOR EQUILIBRIUM ITERATION     2


 AVERAGE FORCE                      7.571E-02   TIME AVG. FORCE       7.571E-02
 LARGEST SCALED RESIDUAL FORCE     -1.447E-08   AT NODE        705   DOF  2
   INSTANCE: NDBR2P5-M-1                                                                     
  CORRESPONDING RESIDUAL FORCE     -1.447E-08
 LARGEST INCREMENT OF DISP.         1.400E-05   AT NODE        706   DOF  2
   INSTANCE: NDBR2P5-M-1                                                                     
 LARGEST CORRECTION TO DISP.        5.894E-11   AT NODE       1795   DOF  2
   INSTANCE: NDBR2P5-M-1                                                                     
          THE FORCE     EQUILIBRIUM EQUATIONS HAVE CONVERGED

 AVERAGE HEAT FLUX                   0.00       TIME AVG. HEAT FLUX   1.000E-02
 ALL HEAT FLUX RESIDUALS ARE ZERO
 ALL TEMP.    INCREMENTS ARE ZERO
 ALL CORRECTION TO TEMP.    ARE ZERO
          THERE IS ZERO HEAT FLUX EVERYWHERE

 MAXIMUM NON-PRESCRIBED INCREMENT IN TEMPERATURE IS    0.00    

 ITERATION SUMMARY FOR THE INCREMENT:   2 TOTAL ITERATIONS, OF WHICH
   0 ARE SEVERE DISCONTINUITY ITERATIONS AND  2 ARE EQUILIBRIUM ITERATIONS.

 TIME INCREMENT COMPLETED   10.0    ,  FRACTION OF STEP COMPLETED  1.000E-02
 STEP TIME COMPLETED        10.0    ,  TOTAL TIME COMPLETED         10.0    


  INCREMENT     2 STARTS. ATTEMPT NUMBER  1, TIME INCREMENT   10.0    
 
	UNSYMMETRIC NEW DIRECT SPARSE SOLVER RUNNING ON
 	1 HOST x 1 MPI RANK PER HOST x 2 THREADS PER RANK
        NUMBER OF EQUATIONS:  193104
        NUMBER OF RHS:        1
        NUMBER OF FLOPS:      3.674e+11
        SOLVER ELAPSED TIME:  5.1s

               CONVERGENCE CHECKS FOR EQUILIBRIUM ITERATION     1


 AVERAGE FORCE                      0.164       TIME AVG. FORCE       0.120    
 LARGEST SCALED RESIDUAL FORCE     -3.326E-08   AT NODE        721   DOF  2
   INSTANCE: NDBR2P5-M-1                                                                     
  CORRESPONDING RESIDUAL FORCE     -3.326E-08
 LARGEST INCREMENT OF DISP.         1.400E-05   AT NODE        706   DOF  2
   INSTANCE: NDBR2P5-M-1                                                                     
 LARGEST CORRECTION TO DISP.        1.122E-10   AT NODE       1795   DOF  2
   INSTANCE: NDBR2P5-M-1                                                                     
          THE FORCE     EQUILIBRIUM EQUATIONS HAVE CONVERGED

 AVERAGE HEAT FLUX                   0.00       TIME AVG. HEAT FLUX   1.000E-02
 ALL HEAT FLUX RESIDUALS ARE ZERO
 ALL TEMP.    INCREMENTS ARE ZERO
 ALL CORRECTION TO TEMP.    ARE ZERO
          THERE IS ZERO HEAT FLUX EVERYWHERE

 MAXIMUM NON-PRESCRIBED INCREMENT IN TEMPERATURE IS    0.00    

 ITERATION SUMMARY FOR THE INCREMENT:   1 TOTAL ITERATIONS, OF WHICH
   0 ARE SEVERE DISCONTINUITY ITERATIONS AND  1 ARE EQUILIBRIUM ITERATIONS.

 TIME INCREMENT COMPLETED   10.0    ,  FRACTION OF STEP COMPLETED  2.000E-02
 STEP TIME COMPLETED        20.0    ,  TOTAL TIME COMPLETED         20.0    


  INCREMENT     3 STARTS. ATTEMPT NUMBER  1, TIME INCREMENT   10.0    
 
	UNSYMMETRIC NEW DIRECT SPARSE SOLVER RUNNING ON
 	1 HOST x 1 MPI RANK PER HOST x 2 THREADS PER RANK
        NUMBER OF EQUATIONS:  193104
        NUMBER OF RHS:        1
        NUMBER OF FLOPS:      3.674e+11
        SOLVER ELAPSED TIME:  10s

               CONVERGENCE CHECKS FOR EQUILIBRIUM ITERATION     1


 AVERAGE FORCE                      0.246       TIME AVG. FORCE       0.162    
 LARGEST SCALED RESIDUAL FORCE     -5.916E-08   AT NODE        699   DOF  2
   INSTANCE: NDBR2P5-M-1                                                                     
  CORRESPONDING RESIDUAL FORCE     -5.916E-08
 LARGEST INCREMENT OF DISP.         1.400E-05   AT NODE        706   DOF  2
   INSTANCE: NDBR2P5-M-1                                                                     
 LARGEST CORRECTION TO DISP.        1.122E-10   AT NODE       1724   DOF  2
   INSTANCE: NDBR2P5-M-1                                                                     
          THE FORCE     EQUILIBRIUM EQUATIONS HAVE CONVERGED

 AVERAGE HEAT FLUX                   0.00       TIME AVG. HEAT FLUX   1.000E-02
 ALL HEAT FLUX RESIDUALS ARE ZERO
 ALL TEMP.    INCREMENTS ARE ZERO
 ALL CORRECTION TO TEMP.    ARE ZERO
          THERE IS ZERO HEAT FLUX EVERYWHERE

 MAXIMUM NON-PRESCRIBED INCREMENT IN TEMPERATURE IS    0.00    

 ITERATION SUMMARY FOR THE INCREMENT:   1 TOTAL ITERATIONS, OF WHICH
   0 ARE SEVERE DISCONTINUITY ITERATIONS AND  1 ARE EQUILIBRIUM ITERATIONS.

 TIME INCREMENT COMPLETED   10.0    ,  FRACTION OF STEP COMPLETED  3.000E-02
 STEP TIME COMPLETED        30.0    ,  TOTAL TIME COMPLETED         30.0    


  INCREMENT     4 STARTS. ATTEMPT NUMBER  1, TIME INCREMENT   10.0    
 
	UNSYMMETRIC NEW DIRECT SPARSE SOLVER RUNNING ON
 	1 HOST x 1 MPI RANK PER HOST x 2 THREADS PER RANK
        NUMBER OF EQUATIONS:  193104
        NUMBER OF RHS:        1
        NUMBER OF FLOPS:      3.674e+11
        SOLVER ELAPSED TIME:  10.0s

               CONVERGENCE CHECKS FOR EQUILIBRIUM ITERATION     1


 AVERAGE FORCE                      0.329       TIME AVG. FORCE       0.204    
 LARGEST SCALED RESIDUAL FORCE     -8.506E-08   AT NODE        697   DOF  2
   INSTANCE: NDBR2P5-M-1                                                                     
  CORRESPONDING RESIDUAL FORCE     -8.506E-08
 LARGEST INCREMENT OF DISP.         1.400E-05   AT NODE        706   DOF  2
   INSTANCE: NDBR2P5-M-1                                                                     
 LARGEST CORRECTION TO DISP.        1.122E-10   AT NODE       1795   DOF  2
   INSTANCE: NDBR2P5-M-1                                                                     
          THE FORCE     EQUILIBRIUM EQUATIONS HAVE CONVERGED

 AVERAGE HEAT FLUX                   0.00       TIME AVG. HEAT FLUX   1.000E-02
 ALL HEAT FLUX RESIDUALS ARE ZERO
 ALL TEMP.    INCREMENTS ARE ZERO
 ALL CORRECTION TO TEMP.    ARE ZERO
          THERE IS ZERO HEAT FLUX EVERYWHERE

 MAXIMUM NON-PRESCRIBED INCREMENT IN TEMPERATURE IS    0.00    

 ITERATION SUMMARY FOR THE INCREMENT:   1 TOTAL ITERATIONS, OF WHICH
   0 ARE SEVERE DISCONTINUITY ITERATIONS AND  1 ARE EQUILIBRIUM ITERATIONS.

 TIME INCREMENT COMPLETED   10.0    ,  FRACTION OF STEP COMPLETED  4.000E-02
 STEP TIME COMPLETED        40.0    ,  TOTAL TIME COMPLETED         40.0    


  INCREMENT     5 STARTS. ATTEMPT NUMBER  1, TIME INCREMENT   10.0    
 
	UNSYMMETRIC NEW DIRECT SPARSE SOLVER RUNNING ON
 	1 HOST x 1 MPI RANK PER HOST x 2 THREADS PER RANK
        NUMBER OF EQUATIONS:  193104
        NUMBER OF RHS:        1
        NUMBER OF FLOPS:      3.674e+11
        SOLVER ELAPSED TIME:  9.6s

               CONVERGENCE CHECKS FOR EQUILIBRIUM ITERATION     1


 AVERAGE FORCE                      0.411       TIME AVG. FORCE       0.245    
 LARGEST SCALED RESIDUAL FORCE     -1.109E-07   AT NODE        697   DOF  2
   INSTANCE: NDBR2P5-M-1                                                                     
  CORRESPONDING RESIDUAL FORCE     -1.109E-07
 LARGEST INCREMENT OF DISP.         1.400E-05   AT NODE        706   DOF  2
   INSTANCE: NDBR2P5-M-1                                                                     
 LARGEST CORRECTION TO DISP.        1.122E-10   AT NODE       1724   DOF  2
   INSTANCE: NDBR2P5-M-1                                                                     
          THE FORCE     EQUILIBRIUM EQUATIONS HAVE CONVERGED

 AVERAGE HEAT FLUX                   0.00       TIME AVG. HEAT FLUX   1.000E-02
 ALL HEAT FLUX RESIDUALS ARE ZERO
 ALL TEMP.    INCREMENTS ARE ZERO
 ALL CORRECTION TO TEMP.    ARE ZERO
          THERE IS ZERO HEAT FLUX EVERYWHERE

 MAXIMUM NON-PRESCRIBED INCREMENT IN TEMPERATURE IS    0.00    

 ITERATION SUMMARY FOR THE INCREMENT:   1 TOTAL ITERATIONS, OF WHICH
   0 ARE SEVERE DISCONTINUITY ITERATIONS AND  1 ARE EQUILIBRIUM ITERATIONS.

 TIME INCREMENT COMPLETED   10.0    ,  FRACTION OF STEP COMPLETED  5.000E-02
 STEP TIME COMPLETED        50.0    ,  TOTAL TIME COMPLETED         50.0    


  INCREMENT     6 STARTS. ATTEMPT NUMBER  1, TIME INCREMENT   10.0    
 
	UNSYMMETRIC NEW DIRECT SPARSE SOLVER RUNNING ON
 	1 HOST x 1 MPI RANK PER HOST x 2 THREADS PER RANK
        NUMBER OF EQUATIONS:  193104
        NUMBER OF RHS:        1
        NUMBER OF FLOPS:      3.674e+11
        SOLVER ELAPSED TIME:  9.6s

               CONVERGENCE CHECKS FOR EQUILIBRIUM ITERATION     1


 AVERAGE FORCE                      0.493       TIME AVG. FORCE       0.286    
 LARGEST SCALED RESIDUAL FORCE     -1.368E-07   AT NODE        699   DOF  2
   INSTANCE: NDBR2P5-M-1                                                                     
  CORRESPONDING RESIDUAL FORCE     -1.368E-07
 LARGEST INCREMENT OF DISP.         1.400E-05   AT NODE        706   DOF  2
   INSTANCE: NDBR2P5-M-1                                                                     
 LARGEST CORRECTION TO DISP.        1.122E-10   AT NODE       1795   DOF  2
   INSTANCE: NDBR2P5-M-1                                                                     
          THE FORCE     EQUILIBRIUM EQUATIONS HAVE CONVERGED

 AVERAGE HEAT FLUX                   0.00       TIME AVG. HEAT FLUX   1.000E-02
 ALL HEAT FLUX RESIDUALS ARE ZERO
 ALL TEMP.    INCREMENTS ARE ZERO
 ALL CORRECTION TO TEMP.    ARE ZERO
          THERE IS ZERO HEAT FLUX EVERYWHERE

 MAXIMUM NON-PRESCRIBED INCREMENT IN TEMPERATURE IS    0.00    

 ITERATION SUMMARY FOR THE INCREMENT:   1 TOTAL ITERATIONS, OF WHICH
   0 ARE SEVERE DISCONTINUITY ITERATIONS AND  1 ARE EQUILIBRIUM ITERATIONS.

 TIME INCREMENT COMPLETED   10.0    ,  FRACTION OF STEP COMPLETED  6.000E-02
 STEP TIME COMPLETED        60.0    ,  TOTAL TIME COMPLETED         60.0    


  INCREMENT     7 STARTS. ATTEMPT NUMBER  1, TIME INCREMENT   10.0    
 
	UNSYMMETRIC NEW DIRECT SPARSE SOLVER RUNNING ON
 	1 HOST x 1 MPI RANK PER HOST x 2 THREADS PER RANK
        NUMBER OF EQUATIONS:  193104
        NUMBER OF RHS:        1
        NUMBER OF FLOPS:      3.674e+11
        SOLVER ELAPSED TIME:  9.7s

               CONVERGENCE CHECKS FOR EQUILIBRIUM ITERATION     1


 AVERAGE FORCE                      0.575       TIME AVG. FORCE       0.328    
 LARGEST SCALED RESIDUAL FORCE     -1.627E-07   AT NODE        697   DOF  2
   INSTANCE: NDBR2P5-M-1                                                                     
  CORRESPONDING RESIDUAL FORCE     -1.627E-07
 LARGEST INCREMENT OF DISP.         1.400E-05   AT NODE        706   DOF  2
   INSTANCE: NDBR2P5-M-1                                                                     
 LARGEST CORRECTION TO DISP.        1.122E-10   AT NODE       1724   DOF  2
   INSTANCE: NDBR2P5-M-1                                                                     
          THE FORCE     EQUILIBRIUM EQUATIONS HAVE CONVERGED

 AVERAGE HEAT FLUX                   0.00       TIME AVG. HEAT FLUX   1.000E-02
 ALL HEAT FLUX RESIDUALS ARE ZERO
 ALL TEMP.    INCREMENTS ARE ZERO
 ALL CORRECTION TO TEMP.    ARE ZERO
          THERE IS ZERO HEAT FLUX EVERYWHERE

 MAXIMUM NON-PRESCRIBED INCREMENT IN TEMPERATURE IS    0.00    

 ITERATION SUMMARY FOR THE INCREMENT:   1 TOTAL ITERATIONS, OF WHICH
   0 ARE SEVERE DISCONTINUITY ITERATIONS AND  1 ARE EQUILIBRIUM ITERATIONS.

 TIME INCREMENT COMPLETED   10.0    ,  FRACTION OF STEP COMPLETED  7.000E-02
 STEP TIME COMPLETED        70.0    ,  TOTAL TIME COMPLETED         70.0    


  INCREMENT     8 STARTS. ATTEMPT NUMBER  1, TIME INCREMENT   10.0    
 
	UNSYMMETRIC NEW DIRECT SPARSE SOLVER RUNNING ON
 	1 HOST x 1 MPI RANK PER HOST x 2 THREADS PER RANK
        NUMBER OF EQUATIONS:  193104
        NUMBER OF RHS:        1
        NUMBER OF FLOPS:      3.674e+11
        SOLVER ELAPSED TIME:  9.7s

               CONVERGENCE CHECKS FOR EQUILIBRIUM ITERATION     1


 AVERAGE FORCE                      0.657       TIME AVG. FORCE       0.369    
 LARGEST SCALED RESIDUAL FORCE     -1.885E-07   AT NODE        699   DOF  2
   INSTANCE: NDBR2P5-M-1                                                                     
  CORRESPONDING RESIDUAL FORCE     -1.885E-07
 LARGEST INCREMENT OF DISP.         1.400E-05   AT NODE        706   DOF  2
   INSTANCE: NDBR2P5-M-1                                                                     
 LARGEST CORRECTION TO DISP.        1.122E-10   AT NODE       1795   DOF  2
   INSTANCE: NDBR2P5-M-1                                                                     
          THE FORCE     EQUILIBRIUM EQUATIONS HAVE CONVERGED

 AVERAGE HEAT FLUX                   0.00       TIME AVG. HEAT FLUX   1.000E-02
 ALL HEAT FLUX RESIDUALS ARE ZERO
 ALL TEMP.    INCREMENTS ARE ZERO
 ALL CORRECTION TO TEMP.    ARE ZERO
          THERE IS ZERO HEAT FLUX EVERYWHERE

 MAXIMUM NON-PRESCRIBED INCREMENT IN TEMPERATURE IS    0.00    

 ITERATION SUMMARY FOR THE INCREMENT:   1 TOTAL ITERATIONS, OF WHICH
   0 ARE SEVERE DISCONTINUITY ITERATIONS AND  1 ARE EQUILIBRIUM ITERATIONS.

 TIME INCREMENT COMPLETED   10.0    ,  FRACTION OF STEP COMPLETED  8.000E-02
 STEP TIME COMPLETED        80.0    ,  TOTAL TIME COMPLETED         80.0    


  INCREMENT     9 STARTS. ATTEMPT NUMBER  1, TIME INCREMENT   10.0    
 
	UNSYMMETRIC NEW DIRECT SPARSE SOLVER RUNNING ON
 	1 HOST x 1 MPI RANK PER HOST x 2 THREADS PER RANK
        NUMBER OF EQUATIONS:  193104
        NUMBER OF RHS:        1
        NUMBER OF FLOPS:      3.674e+11
        SOLVER ELAPSED TIME:  9.9s

               CONVERGENCE CHECKS FOR EQUILIBRIUM ITERATION     1


 AVERAGE FORCE                      0.739       TIME AVG. FORCE       0.410    
 LARGEST SCALED RESIDUAL FORCE     -2.144E-07   AT NODE        699   DOF  2
   INSTANCE: NDBR2P5-M-1                                                                     
  CORRESPONDING RESIDUAL FORCE     -2.144E-07
 LARGEST INCREMENT OF DISP.         1.400E-05   AT NODE        706   DOF  2
   INSTANCE: NDBR2P5-M-1                                                                     
 LARGEST CORRECTION TO DISP.        1.122E-10   AT NODE       1724   DOF  2
   INSTANCE: NDBR2P5-M-1                                                                     
          THE FORCE     EQUILIBRIUM EQUATIONS HAVE CONVERGED

 AVERAGE HEAT FLUX                   0.00       TIME AVG. HEAT FLUX   1.000E-02
 ALL HEAT FLUX RESIDUALS ARE ZERO
 ALL TEMP.    INCREMENTS ARE ZERO
 ALL CORRECTION TO TEMP.    ARE ZERO
          THERE IS ZERO HEAT FLUX EVERYWHERE

 MAXIMUM NON-PRESCRIBED INCREMENT IN TEMPERATURE IS    0.00    

 ITERATION SUMMARY FOR THE INCREMENT:   1 TOTAL ITERATIONS, OF WHICH
   0 ARE SEVERE DISCONTINUITY ITERATIONS AND  1 ARE EQUILIBRIUM ITERATIONS.

 TIME INCREMENT COMPLETED   10.0    ,  FRACTION OF STEP COMPLETED  9.000E-02
 STEP TIME COMPLETED        90.0    ,  TOTAL TIME COMPLETED         90.0    


  INCREMENT    10 STARTS. ATTEMPT NUMBER  1, TIME INCREMENT   10.0    
 
	UNSYMMETRIC NEW DIRECT SPARSE SOLVER RUNNING ON
 	1 HOST x 1 MPI RANK PER HOST x 2 THREADS PER RANK
        NUMBER OF EQUATIONS:  193104
        NUMBER OF RHS:        1
        NUMBER OF FLOPS:      3.674e+11
        SOLVER ELAPSED TIME:  9.7s

               CONVERGENCE CHECKS FOR EQUILIBRIUM ITERATION     1


 AVERAGE FORCE                      0.821       TIME AVG. FORCE       0.451    
 LARGEST SCALED RESIDUAL FORCE     -2.402E-07   AT NODE        697   DOF  2
   INSTANCE: NDBR2P5-M-1                                                                     
  CORRESPONDING RESIDUAL FORCE     -2.402E-07
 LARGEST INCREMENT OF DISP.         1.400E-05   AT NODE        706   DOF  2
   INSTANCE: NDBR2P5-M-1                                                                     
 LARGEST CORRECTION TO DISP.        1.122E-10   AT NODE       1795   DOF  2
   INSTANCE: NDBR2P5-M-1                                                                     
          THE FORCE     EQUILIBRIUM EQUATIONS HAVE CONVERGED

 AVERAGE HEAT FLUX                   0.00       TIME AVG. HEAT FLUX   1.000E-02
 ALL HEAT FLUX RESIDUALS ARE ZERO
 ALL TEMP.    INCREMENTS ARE ZERO
 ALL CORRECTION TO TEMP.    ARE ZERO
          THERE IS ZERO HEAT FLUX EVERYWHERE

 MAXIMUM NON-PRESCRIBED INCREMENT IN TEMPERATURE IS    0.00    

 ITERATION SUMMARY FOR THE INCREMENT:   1 TOTAL ITERATIONS, OF WHICH
   0 ARE SEVERE DISCONTINUITY ITERATIONS AND  1 ARE EQUILIBRIUM ITERATIONS.

 TIME INCREMENT COMPLETED   10.0    ,  FRACTION OF STEP COMPLETED  0.100    
 STEP TIME COMPLETED        100.    ,  TOTAL TIME COMPLETED         100.    


  INCREMENT    11 STARTS. ATTEMPT NUMBER  1, TIME INCREMENT   10.0    
 
	UNSYMMETRIC NEW DIRECT SPARSE SOLVER RUNNING ON
 	1 HOST x 1 MPI RANK PER HOST x 2 THREADS PER RANK
        NUMBER OF EQUATIONS:  193104
        NUMBER OF RHS:        1
        NUMBER OF FLOPS:      3.674e+11
        SOLVER ELAPSED TIME:  10.0s

               CONVERGENCE CHECKS FOR EQUILIBRIUM ITERATION     1


 AVERAGE FORCE                      0.903       TIME AVG. FORCE       0.492    
 LARGEST SCALED RESIDUAL FORCE     -2.660E-07   AT NODE        697   DOF  2
   INSTANCE: NDBR2P5-M-1                                                                     
  CORRESPONDING RESIDUAL FORCE     -2.660E-07
 LARGEST INCREMENT OF DISP.         1.400E-05   AT NODE        706   DOF  2
   INSTANCE: NDBR2P5-M-1                                                                     
 LARGEST CORRECTION TO DISP.        1.121E-10   AT NODE       1724   DOF  2
   INSTANCE: NDBR2P5-M-1                                                                     
          THE FORCE     EQUILIBRIUM EQUATIONS HAVE CONVERGED

 AVERAGE HEAT FLUX                   0.00       TIME AVG. HEAT FLUX   1.000E-02
 ALL HEAT FLUX RESIDUALS ARE ZERO
 ALL TEMP.    INCREMENTS ARE ZERO
 ALL CORRECTION TO TEMP.    ARE ZERO
          THERE IS ZERO HEAT FLUX EVERYWHERE

 MAXIMUM NON-PRESCRIBED INCREMENT IN TEMPERATURE IS    0.00    

 ITERATION SUMMARY FOR THE INCREMENT:   1 TOTAL ITERATIONS, OF WHICH
   0 ARE SEVERE DISCONTINUITY ITERATIONS AND  1 ARE EQUILIBRIUM ITERATIONS.

 TIME INCREMENT COMPLETED   10.0    ,  FRACTION OF STEP COMPLETED  0.110    
 STEP TIME COMPLETED        110.    ,  TOTAL TIME COMPLETED         110.    


  INCREMENT    12 STARTS. ATTEMPT NUMBER  1, TIME INCREMENT   10.0    
 
	UNSYMMETRIC NEW DIRECT SPARSE SOLVER RUNNING ON
 	1 HOST x 1 MPI RANK PER HOST x 2 THREADS PER RANK
        NUMBER OF EQUATIONS:  193104
        NUMBER OF RHS:        1
        NUMBER OF FLOPS:      3.674e+11
        SOLVER ELAPSED TIME:  9.5s

               CONVERGENCE CHECKS FOR EQUILIBRIUM ITERATION     1


 AVERAGE FORCE                      0.985       TIME AVG. FORCE       0.533    
 LARGEST SCALED RESIDUAL FORCE     -2.918E-07   AT NODE        697   DOF  2
   INSTANCE: NDBR2P5-M-1                                                                     
  CORRESPONDING RESIDUAL FORCE     -2.918E-07
 LARGEST INCREMENT OF DISP.         1.400E-05   AT NODE        706   DOF  2
   INSTANCE: NDBR2P5-M-1                                                                     
 LARGEST CORRECTION TO DISP.        1.121E-10   AT NODE       1724   DOF  2
   INSTANCE: NDBR2P5-M-1                                                                     
          THE FORCE     EQUILIBRIUM EQUATIONS HAVE CONVERGED

 AVERAGE HEAT FLUX                   0.00       TIME AVG. HEAT FLUX   1.000E-02
 ALL HEAT FLUX RESIDUALS ARE ZERO
 ALL TEMP.    INCREMENTS ARE ZERO
 ALL CORRECTION TO TEMP.    ARE ZERO
          THERE IS ZERO HEAT FLUX EVERYWHERE

 MAXIMUM NON-PRESCRIBED INCREMENT IN TEMPERATURE IS    0.00    

 ITERATION SUMMARY FOR THE INCREMENT:   1 TOTAL ITERATIONS, OF WHICH
   0 ARE SEVERE DISCONTINUITY ITERATIONS AND  1 ARE EQUILIBRIUM ITERATIONS.

 TIME INCREMENT COMPLETED   10.0    ,  FRACTION OF STEP COMPLETED  0.120    
 STEP TIME COMPLETED        120.    ,  TOTAL TIME COMPLETED         120.    


  INCREMENT    13 STARTS. ATTEMPT NUMBER  1, TIME INCREMENT   10.0    
 
	UNSYMMETRIC NEW DIRECT SPARSE SOLVER RUNNING ON
 	1 HOST x 1 MPI RANK PER HOST x 2 THREADS PER RANK
        NUMBER OF EQUATIONS:  193104
        NUMBER OF RHS:        1
        NUMBER OF FLOPS:      3.674e+11
        SOLVER ELAPSED TIME:  9.8s

               CONVERGENCE CHECKS FOR EQUILIBRIUM ITERATION     1


 AVERAGE FORCE                       1.07       TIME AVG. FORCE       0.574    
 LARGEST SCALED RESIDUAL FORCE     -3.176E-07   AT NODE        697   DOF  2
   INSTANCE: NDBR2P5-M-1                                                                     
  CORRESPONDING RESIDUAL FORCE     -3.176E-07
 LARGEST INCREMENT OF DISP.         1.400E-05   AT NODE        706   DOF  2
   INSTANCE: NDBR2P5-M-1                                                                     
 LARGEST CORRECTION TO DISP.        1.121E-10   AT NODE       1724   DOF  2
   INSTANCE: NDBR2P5-M-1                                                                     
          THE FORCE     EQUILIBRIUM EQUATIONS HAVE CONVERGED

 AVERAGE HEAT FLUX                   0.00       TIME AVG. HEAT FLUX   1.000E-02
 ALL HEAT FLUX RESIDUALS ARE ZERO
 ALL TEMP.    INCREMENTS ARE ZERO
 ALL CORRECTION TO TEMP.    ARE ZERO
          THERE IS ZERO HEAT FLUX EVERYWHERE

 MAXIMUM NON-PRESCRIBED INCREMENT IN TEMPERATURE IS    0.00    

 ITERATION SUMMARY FOR THE INCREMENT:   1 TOTAL ITERATIONS, OF WHICH
   0 ARE SEVERE DISCONTINUITY ITERATIONS AND  1 ARE EQUILIBRIUM ITERATIONS.

 TIME INCREMENT COMPLETED   10.0    ,  FRACTION OF STEP COMPLETED  0.130    
 STEP TIME COMPLETED        130.    ,  TOTAL TIME COMPLETED         130.    


  INCREMENT    14 STARTS. ATTEMPT NUMBER  1, TIME INCREMENT   10.0    
 
	UNSYMMETRIC NEW DIRECT SPARSE SOLVER RUNNING ON
 	1 HOST x 1 MPI RANK PER HOST x 2 THREADS PER RANK
        NUMBER OF EQUATIONS:  193104
        NUMBER OF RHS:        1
        NUMBER OF FLOPS:      3.674e+11
        SOLVER ELAPSED TIME:  9.6s

               CONVERGENCE CHECKS FOR EQUILIBRIUM ITERATION     1


 AVERAGE FORCE                       1.15       TIME AVG. FORCE       0.615    
 LARGEST SCALED RESIDUAL FORCE     -3.434E-07   AT NODE        697   DOF  2
   INSTANCE: NDBR2P5-M-1                                                                     
  CORRESPONDING RESIDUAL FORCE     -3.434E-07
 LARGEST INCREMENT OF DISP.         1.400E-05   AT NODE        706   DOF  2
   INSTANCE: NDBR2P5-M-1                                                                     
 LARGEST CORRECTION TO DISP.        1.121E-10   AT NODE       1724   DOF  2
   INSTANCE: NDBR2P5-M-1                                                                     
          THE FORCE     EQUILIBRIUM EQUATIONS HAVE CONVERGED

 AVERAGE HEAT FLUX                   0.00       TIME AVG. HEAT FLUX   1.000E-02
 ALL HEAT FLUX RESIDUALS ARE ZERO
 ALL TEMP.    INCREMENTS ARE ZERO
 ALL CORRECTION TO TEMP.    ARE ZERO
          THERE IS ZERO HEAT FLUX EVERYWHERE

 MAXIMUM NON-PRESCRIBED INCREMENT IN TEMPERATURE IS    0.00    

 ITERATION SUMMARY FOR THE INCREMENT:   1 TOTAL ITERATIONS, OF WHICH
   0 ARE SEVERE DISCONTINUITY ITERATIONS AND  1 ARE EQUILIBRIUM ITERATIONS.

 TIME INCREMENT COMPLETED   10.0    ,  FRACTION OF STEP COMPLETED  0.140    
 STEP TIME COMPLETED        140.    ,  TOTAL TIME COMPLETED         140.    


  INCREMENT    15 STARTS. ATTEMPT NUMBER  1, TIME INCREMENT   10.0    
 
	UNSYMMETRIC NEW DIRECT SPARSE SOLVER RUNNING ON
 	1 HOST x 1 MPI RANK PER HOST x 2 THREADS PER RANK
        NUMBER OF EQUATIONS:  193104
        NUMBER OF RHS:        1
        NUMBER OF FLOPS:      3.674e+11
        SOLVER ELAPSED TIME:  9.7s

               CONVERGENCE CHECKS FOR EQUILIBRIUM ITERATION     1


 AVERAGE FORCE                       1.23       TIME AVG. FORCE       0.656    
 LARGEST SCALED RESIDUAL FORCE     -3.692E-07   AT NODE        699   DOF  2
   INSTANCE: NDBR2P5-M-1                                                                     
  CORRESPONDING RESIDUAL FORCE     -3.692E-07
 LARGEST INCREMENT OF DISP.         1.400E-05   AT NODE        706   DOF  2
   INSTANCE: NDBR2P5-M-1                                                                     
 LARGEST CORRECTION TO DISP.        1.121E-10   AT NODE       1724   DOF  2
   INSTANCE: NDBR2P5-M-1                                                                     
          THE FORCE     EQUILIBRIUM EQUATIONS HAVE CONVERGED

 AVERAGE HEAT FLUX                   0.00       TIME AVG. HEAT FLUX   1.000E-02
 ALL HEAT FLUX RESIDUALS ARE ZERO
 ALL TEMP.    INCREMENTS ARE ZERO
 ALL CORRECTION TO TEMP.    ARE ZERO
          THERE IS ZERO HEAT FLUX EVERYWHERE

 MAXIMUM NON-PRESCRIBED INCREMENT IN TEMPERATURE IS    0.00    

 ITERATION SUMMARY FOR THE INCREMENT:   1 TOTAL ITERATIONS, OF WHICH
   0 ARE SEVERE DISCONTINUITY ITERATIONS AND  1 ARE EQUILIBRIUM ITERATIONS.

 TIME INCREMENT COMPLETED   10.0    ,  FRACTION OF STEP COMPLETED  0.150    
 STEP TIME COMPLETED        150.    ,  TOTAL TIME COMPLETED         150.    


  INCREMENT    16 STARTS. ATTEMPT NUMBER  1, TIME INCREMENT   10.0    
 
	UNSYMMETRIC NEW DIRECT SPARSE SOLVER RUNNING ON
 	1 HOST x 1 MPI RANK PER HOST x 2 THREADS PER RANK
        NUMBER OF EQUATIONS:  193104
        NUMBER OF RHS:        1
        NUMBER OF FLOPS:      3.674e+11
        SOLVER ELAPSED TIME:  9.6s

               CONVERGENCE CHECKS FOR EQUILIBRIUM ITERATION     1


 AVERAGE FORCE                       1.31       TIME AVG. FORCE       0.697    
 LARGEST SCALED RESIDUAL FORCE     -3.950E-07   AT NODE        697   DOF  2
   INSTANCE: NDBR2P5-M-1                                                                     
  CORRESPONDING RESIDUAL FORCE     -3.950E-07
 LARGEST INCREMENT OF DISP.         1.400E-05   AT NODE        706   DOF  2
   INSTANCE: NDBR2P5-M-1                                                                     
 LARGEST CORRECTION TO DISP.        1.121E-10   AT NODE       1724   DOF  2
   INSTANCE: NDBR2P5-M-1                                                                     
          THE FORCE     EQUILIBRIUM EQUATIONS HAVE CONVERGED

 AVERAGE HEAT FLUX                   0.00       TIME AVG. HEAT FLUX   1.000E-02
 ALL HEAT FLUX RESIDUALS ARE ZERO
 ALL TEMP.    INCREMENTS ARE ZERO
 ALL CORRECTION TO TEMP.    ARE ZERO
          THERE IS ZERO HEAT FLUX EVERYWHERE

 MAXIMUM NON-PRESCRIBED INCREMENT IN TEMPERATURE IS    0.00    

 ITERATION SUMMARY FOR THE INCREMENT:   1 TOTAL ITERATIONS, OF WHICH
   0 ARE SEVERE DISCONTINUITY ITERATIONS AND  1 ARE EQUILIBRIUM ITERATIONS.

 TIME INCREMENT COMPLETED   10.0    ,  FRACTION OF STEP COMPLETED  0.160    
 STEP TIME COMPLETED        160.    ,  TOTAL TIME COMPLETED         160.    


  INCREMENT    17 STARTS. ATTEMPT NUMBER  1, TIME INCREMENT   10.0    
 
	UNSYMMETRIC NEW DIRECT SPARSE SOLVER RUNNING ON
 	1 HOST x 1 MPI RANK PER HOST x 2 THREADS PER RANK
        NUMBER OF EQUATIONS:  193104
        NUMBER OF RHS:        1
        NUMBER OF FLOPS:      3.674e+11
        SOLVER ELAPSED TIME:  9.7s

               CONVERGENCE CHECKS FOR EQUILIBRIUM ITERATION     1


 AVERAGE FORCE                       1.40       TIME AVG. FORCE       0.739    
 LARGEST SCALED RESIDUAL FORCE     -4.207E-07   AT NODE        699   DOF  2
   INSTANCE: NDBR2P5-M-1                                                                     
  CORRESPONDING RESIDUAL FORCE     -4.207E-07
 LARGEST INCREMENT OF DISP.         1.400E-05   AT NODE        706   DOF  2
   INSTANCE: NDBR2P5-M-1                                                                     
 LARGEST CORRECTION TO DISP.        1.121E-10   AT NODE       1724   DOF  2
   INSTANCE: NDBR2P5-M-1                                                                     
          THE FORCE     EQUILIBRIUM EQUATIONS HAVE CONVERGED

 AVERAGE HEAT FLUX                   0.00       TIME AVG. HEAT FLUX   1.000E-02
 ALL HEAT FLUX RESIDUALS ARE ZERO
 ALL TEMP.    INCREMENTS ARE ZERO
 ALL CORRECTION TO TEMP.    ARE ZERO
          THERE IS ZERO HEAT FLUX EVERYWHERE

 MAXIMUM NON-PRESCRIBED INCREMENT IN TEMPERATURE IS    0.00    

 ITERATION SUMMARY FOR THE INCREMENT:   1 TOTAL ITERATIONS, OF WHICH
   0 ARE SEVERE DISCONTINUITY ITERATIONS AND  1 ARE EQUILIBRIUM ITERATIONS.

 TIME INCREMENT COMPLETED   10.0    ,  FRACTION OF STEP COMPLETED  0.170    
 STEP TIME COMPLETED        170.    ,  TOTAL TIME COMPLETED         170.    


  INCREMENT    18 STARTS. ATTEMPT NUMBER  1, TIME INCREMENT   10.0    
 
	UNSYMMETRIC NEW DIRECT SPARSE SOLVER RUNNING ON
 	1 HOST x 1 MPI RANK PER HOST x 2 THREADS PER RANK
        NUMBER OF EQUATIONS:  193104
        NUMBER OF RHS:        1
        NUMBER OF FLOPS:      3.674e+11
        SOLVER ELAPSED TIME:  9.5s

               CONVERGENCE CHECKS FOR EQUILIBRIUM ITERATION     1


 AVERAGE FORCE                       1.48       TIME AVG. FORCE       0.780    
 LARGEST SCALED RESIDUAL FORCE     -4.465E-07   AT NODE        699   DOF  2
   INSTANCE: NDBR2P5-M-1                                                                     
  CORRESPONDING RESIDUAL FORCE     -4.465E-07
 LARGEST INCREMENT OF DISP.         1.400E-05   AT NODE        706   DOF  2
   INSTANCE: NDBR2P5-M-1                                                                     
 LARGEST CORRECTION TO DISP.        1.121E-10   AT NODE       1724   DOF  2
   INSTANCE: NDBR2P5-M-1                                                                     
          THE FORCE     EQUILIBRIUM EQUATIONS HAVE CONVERGED

 AVERAGE HEAT FLUX                   0.00       TIME AVG. HEAT FLUX   1.000E-02
 ALL HEAT FLUX RESIDUALS ARE ZERO
 ALL TEMP.    INCREMENTS ARE ZERO
 ALL CORRECTION TO TEMP.    ARE ZERO
          THERE IS ZERO HEAT FLUX EVERYWHERE

 MAXIMUM NON-PRESCRIBED INCREMENT IN TEMPERATURE IS    0.00    

 ITERATION SUMMARY FOR THE INCREMENT:   1 TOTAL ITERATIONS, OF WHICH
   0 ARE SEVERE DISCONTINUITY ITERATIONS AND  1 ARE EQUILIBRIUM ITERATIONS.

 TIME INCREMENT COMPLETED   10.0    ,  FRACTION OF STEP COMPLETED  0.180    
 STEP TIME COMPLETED        180.    ,  TOTAL TIME COMPLETED         180.    


  INCREMENT    19 STARTS. ATTEMPT NUMBER  1, TIME INCREMENT   10.0    
 
	UNSYMMETRIC NEW DIRECT SPARSE SOLVER RUNNING ON
 	1 HOST x 1 MPI RANK PER HOST x 2 THREADS PER RANK
        NUMBER OF EQUATIONS:  193104
        NUMBER OF RHS:        1
        NUMBER OF FLOPS:      3.674e+11
        SOLVER ELAPSED TIME:  9.7s

               CONVERGENCE CHECKS FOR EQUILIBRIUM ITERATION     1


 AVERAGE FORCE                       1.56       TIME AVG. FORCE       0.821    
 LARGEST SCALED RESIDUAL FORCE     -4.722E-07   AT NODE        697   DOF  2
   INSTANCE: NDBR2P5-M-1                                                                     
  CORRESPONDING RESIDUAL FORCE     -4.722E-07
 LARGEST INCREMENT OF DISP.         1.400E-05   AT NODE        706   DOF  2
   INSTANCE: NDBR2P5-M-1                                                                     
 LARGEST CORRECTION TO DISP.        1.121E-10   AT NODE       1724   DOF  2
   INSTANCE: NDBR2P5-M-1                                                                     
          THE FORCE     EQUILIBRIUM EQUATIONS HAVE CONVERGED

 AVERAGE HEAT FLUX                   0.00       TIME AVG. HEAT FLUX   1.000E-02
 ALL HEAT FLUX RESIDUALS ARE ZERO
 ALL TEMP.    INCREMENTS ARE ZERO
 ALL CORRECTION TO TEMP.    ARE ZERO
          THERE IS ZERO HEAT FLUX EVERYWHERE

 MAXIMUM NON-PRESCRIBED INCREMENT IN TEMPERATURE IS    0.00    

 ITERATION SUMMARY FOR THE INCREMENT:   1 TOTAL ITERATIONS, OF WHICH
   0 ARE SEVERE DISCONTINUITY ITERATIONS AND  1 ARE EQUILIBRIUM ITERATIONS.

 TIME INCREMENT COMPLETED   10.0    ,  FRACTION OF STEP COMPLETED  0.190    
 STEP TIME COMPLETED        190.    ,  TOTAL TIME COMPLETED         190.    


  INCREMENT    20 STARTS. ATTEMPT NUMBER  1, TIME INCREMENT   10.0    
 
	UNSYMMETRIC NEW DIRECT SPARSE SOLVER RUNNING ON
 	1 HOST x 1 MPI RANK PER HOST x 2 THREADS PER RANK
        NUMBER OF EQUATIONS:  193104
        NUMBER OF RHS:        1
        NUMBER OF FLOPS:      3.674e+11
        SOLVER ELAPSED TIME:  9.6s

               CONVERGENCE CHECKS FOR EQUILIBRIUM ITERATION     1


 AVERAGE FORCE                       1.64       TIME AVG. FORCE       0.862    
 LARGEST SCALED RESIDUAL FORCE     -4.979E-07   AT NODE        697   DOF  2
   INSTANCE: NDBR2P5-M-1                                                                     
  CORRESPONDING RESIDUAL FORCE     -4.979E-07
 LARGEST INCREMENT OF DISP.         1.400E-05   AT NODE        706   DOF  2
   INSTANCE: NDBR2P5-M-1                                                                     
 LARGEST CORRECTION TO DISP.        1.121E-10   AT NODE       1795   DOF  2
   INSTANCE: NDBR2P5-M-1                                                                     
          THE FORCE     EQUILIBRIUM EQUATIONS HAVE CONVERGED

 AVERAGE HEAT FLUX                   0.00       TIME AVG. HEAT FLUX   1.000E-02
 ALL HEAT FLUX RESIDUALS ARE ZERO
 ALL TEMP.    INCREMENTS ARE ZERO
 ALL CORRECTION TO TEMP.    ARE ZERO
          THERE IS ZERO HEAT FLUX EVERYWHERE

 MAXIMUM NON-PRESCRIBED INCREMENT IN TEMPERATURE IS    0.00    

 ITERATION SUMMARY FOR THE INCREMENT:   1 TOTAL ITERATIONS, OF WHICH
   0 ARE SEVERE DISCONTINUITY ITERATIONS AND  1 ARE EQUILIBRIUM ITERATIONS.

 TIME INCREMENT COMPLETED   10.0    ,  FRACTION OF STEP COMPLETED  0.200    
 STEP TIME COMPLETED        200.    ,  TOTAL TIME COMPLETED         200.    


  INCREMENT    21 STARTS. ATTEMPT NUMBER  1, TIME INCREMENT   10.0    
 
	UNSYMMETRIC NEW DIRECT SPARSE SOLVER RUNNING ON
 	1 HOST x 1 MPI RANK PER HOST x 2 THREADS PER RANK
        NUMBER OF EQUATIONS:  193104
        NUMBER OF RHS:        1
        NUMBER OF FLOPS:      3.674e+11
        SOLVER ELAPSED TIME:  9.9s

               CONVERGENCE CHECKS FOR EQUILIBRIUM ITERATION     1


 AVERAGE FORCE                       1.72       TIME AVG. FORCE       0.903    
 LARGEST SCALED RESIDUAL FORCE     -5.236E-07   AT NODE        697   DOF  2
   INSTANCE: NDBR2P5-M-1                                                                     
  CORRESPONDING RESIDUAL FORCE     -5.236E-07
 LARGEST INCREMENT OF DISP.         1.400E-05   AT NODE        706   DOF  2
   INSTANCE: NDBR2P5-M-1                                                                     
 LARGEST CORRECTION TO DISP.        1.121E-10   AT NODE       1795   DOF  2
   INSTANCE: NDBR2P5-M-1                                                                     
          THE FORCE     EQUILIBRIUM EQUATIONS HAVE CONVERGED

 AVERAGE HEAT FLUX                   0.00       TIME AVG. HEAT FLUX   1.000E-02
 ALL HEAT FLUX RESIDUALS ARE ZERO
 ALL TEMP.    INCREMENTS ARE ZERO
 ALL CORRECTION TO TEMP.    ARE ZERO
          THERE IS ZERO HEAT FLUX EVERYWHERE

 MAXIMUM NON-PRESCRIBED INCREMENT IN TEMPERATURE IS    0.00    

 ITERATION SUMMARY FOR THE INCREMENT:   1 TOTAL ITERATIONS, OF WHICH
   0 ARE SEVERE DISCONTINUITY ITERATIONS AND  1 ARE EQUILIBRIUM ITERATIONS.

 TIME INCREMENT COMPLETED   10.0    ,  FRACTION OF STEP COMPLETED  0.210    
 STEP TIME COMPLETED        210.    ,  TOTAL TIME COMPLETED         210.    


  INCREMENT    22 STARTS. ATTEMPT NUMBER  1, TIME INCREMENT   10.0    
 
	UNSYMMETRIC NEW DIRECT SPARSE SOLVER RUNNING ON
 	1 HOST x 1 MPI RANK PER HOST x 2 THREADS PER RANK
        NUMBER OF EQUATIONS:  193104
        NUMBER OF RHS:        1
        NUMBER OF FLOPS:      3.674e+11
        SOLVER ELAPSED TIME:  9.6s

               CONVERGENCE CHECKS FOR EQUILIBRIUM ITERATION     1


 AVERAGE FORCE                       1.81       TIME AVG. FORCE       0.944    
 LARGEST SCALED RESIDUAL FORCE     -1.409E-03   AT NODE      24055   DOF  2
   INSTANCE: NDBR2P5-M-1                                                                     
  CORRESPONDING RESIDUAL FORCE     -1.409E-03
 LARGEST INCREMENT OF DISP.         1.400E-05   AT NODE        706   DOF  2
   INSTANCE: NDBR2P5-M-1                                                                     
 LARGEST CORRECTION TO DISP.        5.536E-09   AT NODE      21947   DOF  3
   INSTANCE: NDBR2P5-M-1                                                                     
          THE FORCE     EQUILIBRIUM EQUATIONS HAVE CONVERGED

 AVERAGE HEAT FLUX                   0.00       TIME AVG. HEAT FLUX   1.000E-02
 ALL HEAT FLUX RESIDUALS ARE ZERO
 ALL TEMP.    INCREMENTS ARE ZERO
 ALL CORRECTION TO TEMP.    ARE ZERO
          THERE IS ZERO HEAT FLUX EVERYWHERE

 MAXIMUM NON-PRESCRIBED INCREMENT IN TEMPERATURE IS    0.00    

 ITERATION SUMMARY FOR THE INCREMENT:   1 TOTAL ITERATIONS, OF WHICH
   0 ARE SEVERE DISCONTINUITY ITERATIONS AND  1 ARE EQUILIBRIUM ITERATIONS.

 TIME INCREMENT COMPLETED   10.0    ,  FRACTION OF STEP COMPLETED  0.220    
 STEP TIME COMPLETED        220.    ,  TOTAL TIME COMPLETED         220.    


  INCREMENT    23 STARTS. ATTEMPT NUMBER  1, TIME INCREMENT   10.0    
 
	UNSYMMETRIC NEW DIRECT SPARSE SOLVER RUNNING ON
 	1 HOST x 1 MPI RANK PER HOST x 2 THREADS PER RANK
        NUMBER OF EQUATIONS:  193104
        NUMBER OF RHS:        1
        NUMBER OF FLOPS:      3.674e+11
        SOLVER ELAPSED TIME:  9.7s

               CONVERGENCE CHECKS FOR EQUILIBRIUM ITERATION     1


 AVERAGE FORCE                       1.89       TIME AVG. FORCE       0.985    
 LARGEST SCALED RESIDUAL FORCE      3.388E-03   AT NODE      29490   DOF  2
   INSTANCE: NDBR2P5-M-1                                                                     
  CORRESPONDING RESIDUAL FORCE      3.388E-03
 LARGEST INCREMENT OF DISP.         1.400E-05   AT NODE        706   DOF  2
   INSTANCE: NDBR2P5-M-1                                                                     
 LARGEST CORRECTION TO DISP.        1.080E-08   AT NODE      34946   DOF  2
   INSTANCE: NDBR2P5-M-1                                                                     
          THE FORCE     EQUILIBRIUM EQUATIONS HAVE CONVERGED

 AVERAGE HEAT FLUX                   0.00       TIME AVG. HEAT FLUX   1.000E-02
 ALL HEAT FLUX RESIDUALS ARE ZERO
 ALL TEMP.    INCREMENTS ARE ZERO
 ALL CORRECTION TO TEMP.    ARE ZERO
          THERE IS ZERO HEAT FLUX EVERYWHERE

 MAXIMUM NON-PRESCRIBED INCREMENT IN TEMPERATURE IS    0.00    

 ITERATION SUMMARY FOR THE INCREMENT:   1 TOTAL ITERATIONS, OF WHICH
   0 ARE SEVERE DISCONTINUITY ITERATIONS AND  1 ARE EQUILIBRIUM ITERATIONS.

 TIME INCREMENT COMPLETED   10.0    ,  FRACTION OF STEP COMPLETED  0.230    
 STEP TIME COMPLETED        230.    ,  TOTAL TIME COMPLETED         230.    


  INCREMENT    24 STARTS. ATTEMPT NUMBER  1, TIME INCREMENT   10.0    
 
	UNSYMMETRIC NEW DIRECT SPARSE SOLVER RUNNING ON
 	1 HOST x 1 MPI RANK PER HOST x 2 THREADS PER RANK
        NUMBER OF EQUATIONS:  193104
        NUMBER OF RHS:        1
        NUMBER OF FLOPS:      3.674e+11
        SOLVER ELAPSED TIME:  9.7s

               CONVERGENCE CHECKS FOR EQUILIBRIUM ITERATION     1


 AVERAGE FORCE                       1.97       TIME AVG. FORCE        1.03    
 LARGEST SCALED RESIDUAL FORCE      3.351E-03   AT NODE      34277   DOF  2
   INSTANCE: NDBR2P5-M-1                                                                     
  CORRESPONDING RESIDUAL FORCE      3.351E-03
 LARGEST INCREMENT OF DISP.         1.400E-05   AT NODE        706   DOF  2
   INSTANCE: NDBR2P5-M-1                                                                     
 LARGEST CORRECTION TO DISP.        1.095E-08   AT NODE      34276   DOF  2
   INSTANCE: NDBR2P5-M-1                                                                     
          THE FORCE     EQUILIBRIUM EQUATIONS HAVE CONVERGED

 AVERAGE HEAT FLUX                   0.00       TIME AVG. HEAT FLUX   1.000E-02
 ALL HEAT FLUX RESIDUALS ARE ZERO
 ALL TEMP.    INCREMENTS ARE ZERO
 ALL CORRECTION TO TEMP.    ARE ZERO
          THERE IS ZERO HEAT FLUX EVERYWHERE

 MAXIMUM NON-PRESCRIBED INCREMENT IN TEMPERATURE IS    0.00    

 ITERATION SUMMARY FOR THE INCREMENT:   1 TOTAL ITERATIONS, OF WHICH
   0 ARE SEVERE DISCONTINUITY ITERATIONS AND  1 ARE EQUILIBRIUM ITERATIONS.

 TIME INCREMENT COMPLETED   10.0    ,  FRACTION OF STEP COMPLETED  0.240    
 STEP TIME COMPLETED        240.    ,  TOTAL TIME COMPLETED         240.    


  INCREMENT    25 STARTS. ATTEMPT NUMBER  1, TIME INCREMENT   10.0    
 
	UNSYMMETRIC NEW DIRECT SPARSE SOLVER RUNNING ON
 	1 HOST x 1 MPI RANK PER HOST x 2 THREADS PER RANK
        NUMBER OF EQUATIONS:  193104
        NUMBER OF RHS:        1
        NUMBER OF FLOPS:      3.674e+11
        SOLVER ELAPSED TIME:  9.5s

               CONVERGENCE CHECKS FOR EQUILIBRIUM ITERATION     1


 AVERAGE FORCE                       2.05       TIME AVG. FORCE        1.07    
 LARGEST SCALED RESIDUAL FORCE     -1.710E-03   AT NODE      29402   DOF  2
   INSTANCE: NDBR2P5-M-1                                                                     
  CORRESPONDING RESIDUAL FORCE     -1.710E-03
 LARGEST INCREMENT OF DISP.         1.400E-05   AT NODE        706   DOF  2
   INSTANCE: NDBR2P5-M-1                                                                     
 LARGEST CORRECTION TO DISP.        1.143E-08   AT NODE      34277   DOF  2
   INSTANCE: NDBR2P5-M-1                                                                     
          THE FORCE     EQUILIBRIUM EQUATIONS HAVE CONVERGED

 AVERAGE HEAT FLUX                   0.00       TIME AVG. HEAT FLUX   1.000E-02
 ALL HEAT FLUX RESIDUALS ARE ZERO
 ALL TEMP.    INCREMENTS ARE ZERO
 ALL CORRECTION TO TEMP.    ARE ZERO
          THERE IS ZERO HEAT FLUX EVERYWHERE

 MAXIMUM NON-PRESCRIBED INCREMENT IN TEMPERATURE IS    0.00    

 ITERATION SUMMARY FOR THE INCREMENT:   1 TOTAL ITERATIONS, OF WHICH
   0 ARE SEVERE DISCONTINUITY ITERATIONS AND  1 ARE EQUILIBRIUM ITERATIONS.

 TIME INCREMENT COMPLETED   10.0    ,  FRACTION OF STEP COMPLETED  0.250    
 STEP TIME COMPLETED        250.    ,  TOTAL TIME COMPLETED         250.    


  INCREMENT    26 STARTS. ATTEMPT NUMBER  1, TIME INCREMENT   10.0    
 
	UNSYMMETRIC NEW DIRECT SPARSE SOLVER RUNNING ON
 	1 HOST x 1 MPI RANK PER HOST x 2 THREADS PER RANK
        NUMBER OF EQUATIONS:  193104
        NUMBER OF RHS:        1
        NUMBER OF FLOPS:      3.674e+11
        SOLVER ELAPSED TIME:  9.9s

               CONVERGENCE CHECKS FOR EQUILIBRIUM ITERATION     1


 AVERAGE FORCE                       2.13       TIME AVG. FORCE        1.11    
 LARGEST SCALED RESIDUAL FORCE      2.097E-03   AT NODE      42984   DOF  2
   INSTANCE: NDBR2P5-M-1                                                                     
  CORRESPONDING RESIDUAL FORCE      2.097E-03
 LARGEST INCREMENT OF DISP.         1.400E-05   AT NODE        706   DOF  2
   INSTANCE: NDBR2P5-M-1                                                                     
 LARGEST CORRECTION TO DISP.        1.124E-08   AT NODE      34278   DOF  2
   INSTANCE: NDBR2P5-M-1                                                                     
          THE FORCE     EQUILIBRIUM EQUATIONS HAVE CONVERGED

 AVERAGE HEAT FLUX                   0.00       TIME AVG. HEAT FLUX   1.000E-02
 ALL HEAT FLUX RESIDUALS ARE ZERO
 ALL TEMP.    INCREMENTS ARE ZERO
 ALL CORRECTION TO TEMP.    ARE ZERO
          THERE IS ZERO HEAT FLUX EVERYWHERE

 MAXIMUM NON-PRESCRIBED INCREMENT IN TEMPERATURE IS    0.00    

 ITERATION SUMMARY FOR THE INCREMENT:   1 TOTAL ITERATIONS, OF WHICH
   0 ARE SEVERE DISCONTINUITY ITERATIONS AND  1 ARE EQUILIBRIUM ITERATIONS.

 TIME INCREMENT COMPLETED   10.0    ,  FRACTION OF STEP COMPLETED  0.260    
 STEP TIME COMPLETED        260.    ,  TOTAL TIME COMPLETED         260.    


  INCREMENT    27 STARTS. ATTEMPT NUMBER  1, TIME INCREMENT   10.0    
 
	UNSYMMETRIC NEW DIRECT SPARSE SOLVER RUNNING ON
 	1 HOST x 1 MPI RANK PER HOST x 2 THREADS PER RANK
        NUMBER OF EQUATIONS:  193104
        NUMBER OF RHS:        1
        NUMBER OF FLOPS:      3.674e+11
        SOLVER ELAPSED TIME:  9.5s

               CONVERGENCE CHECKS FOR EQUILIBRIUM ITERATION     1


 AVERAGE FORCE                       2.21       TIME AVG. FORCE        1.15    
 LARGEST SCALED RESIDUAL FORCE      3.045E-03   AT NODE      40807   DOF  2
   INSTANCE: NDBR2P5-M-1                                                                     
  CORRESPONDING RESIDUAL FORCE      3.045E-03
 LARGEST INCREMENT OF DISP.         1.400E-05   AT NODE        706   DOF  2
   INSTANCE: NDBR2P5-M-1                                                                     
 LARGEST CORRECTION TO DISP.        1.231E-08   AT NODE      34942   DOF  2
   INSTANCE: NDBR2P5-M-1                                                                     
          THE FORCE     EQUILIBRIUM EQUATIONS HAVE CONVERGED

 AVERAGE HEAT FLUX                   0.00       TIME AVG. HEAT FLUX   1.000E-02
 ALL HEAT FLUX RESIDUALS ARE ZERO
 ALL TEMP.    INCREMENTS ARE ZERO
 ALL CORRECTION TO TEMP.    ARE ZERO
          THERE IS ZERO HEAT FLUX EVERYWHERE

 MAXIMUM NON-PRESCRIBED INCREMENT IN TEMPERATURE IS    0.00    

 ITERATION SUMMARY FOR THE INCREMENT:   1 TOTAL ITERATIONS, OF WHICH
   0 ARE SEVERE DISCONTINUITY ITERATIONS AND  1 ARE EQUILIBRIUM ITERATIONS.

 TIME INCREMENT COMPLETED   10.0    ,  FRACTION OF STEP COMPLETED  0.270    
 STEP TIME COMPLETED        270.    ,  TOTAL TIME COMPLETED         270.    


  INCREMENT    28 STARTS. ATTEMPT NUMBER  1, TIME INCREMENT   10.0    
 
	UNSYMMETRIC NEW DIRECT SPARSE SOLVER RUNNING ON
 	1 HOST x 1 MPI RANK PER HOST x 2 THREADS PER RANK
        NUMBER OF EQUATIONS:  193104
        NUMBER OF RHS:        1
        NUMBER OF FLOPS:      3.674e+11
        SOLVER ELAPSED TIME:  9.6s

               CONVERGENCE CHECKS FOR EQUILIBRIUM ITERATION     1


 AVERAGE FORCE                       2.30       TIME AVG. FORCE        1.19    
 LARGEST SCALED RESIDUAL FORCE     -4.096E-03   AT NODE      40638   DOF  2
   INSTANCE: NDBR2P5-M-1                                                                     
  CORRESPONDING RESIDUAL FORCE     -4.096E-03
 LARGEST INCREMENT OF DISP.         1.400E-05   AT NODE        706   DOF  2
   INSTANCE: NDBR2P5-M-1                                                                     
 LARGEST CORRECTION TO DISP.        1.341E-08   AT NODE      34941   DOF  2
   INSTANCE: NDBR2P5-M-1                                                                     
          THE FORCE     EQUILIBRIUM EQUATIONS HAVE CONVERGED

 AVERAGE HEAT FLUX                   0.00       TIME AVG. HEAT FLUX   1.000E-02
 ALL HEAT FLUX RESIDUALS ARE ZERO
 ALL TEMP.    INCREMENTS ARE ZERO
 ALL CORRECTION TO TEMP.    ARE ZERO
          THERE IS ZERO HEAT FLUX EVERYWHERE

 MAXIMUM NON-PRESCRIBED INCREMENT IN TEMPERATURE IS    0.00    

 ITERATION SUMMARY FOR THE INCREMENT:   1 TOTAL ITERATIONS, OF WHICH
   0 ARE SEVERE DISCONTINUITY ITERATIONS AND  1 ARE EQUILIBRIUM ITERATIONS.

 TIME INCREMENT COMPLETED   10.0    ,  FRACTION OF STEP COMPLETED  0.280    
 STEP TIME COMPLETED        280.    ,  TOTAL TIME COMPLETED         280.    


  INCREMENT    29 STARTS. ATTEMPT NUMBER  1, TIME INCREMENT   10.0    
 
	UNSYMMETRIC NEW DIRECT SPARSE SOLVER RUNNING ON
 	1 HOST x 1 MPI RANK PER HOST x 2 THREADS PER RANK
        NUMBER OF EQUATIONS:  193104
        NUMBER OF RHS:        1
        NUMBER OF FLOPS:      3.674e+11
        SOLVER ELAPSED TIME:  9.6s

               CONVERGENCE CHECKS FOR EQUILIBRIUM ITERATION     1


 AVERAGE FORCE                       2.38       TIME AVG. FORCE        1.23    
 LARGEST SCALED RESIDUAL FORCE      6.572E-03   AT NODE      29661   DOF  2
   INSTANCE: NDBR2P5-M-1                                                                     
  CORRESPONDING RESIDUAL FORCE      6.572E-03
 LARGEST INCREMENT OF DISP.         1.400E-05   AT NODE        706   DOF  2
   INSTANCE: NDBR2P5-M-1                                                                     
 LARGEST CORRECTION TO DISP.        1.587E-08   AT NODE      34986   DOF  2
   INSTANCE: NDBR2P5-M-1                                                                     
          FORCE     EQUILIBRIUM NOT ACHIEVED WITHIN TOLERANCE.

 AVERAGE HEAT FLUX                   0.00       TIME AVG. HEAT FLUX   1.000E-02
 ALL HEAT FLUX RESIDUALS ARE ZERO
 ALL TEMP.    INCREMENTS ARE ZERO
 ALL CORRECTION TO TEMP.    ARE ZERO
          THERE IS ZERO HEAT FLUX EVERYWHERE
 
	UNSYMMETRIC NEW DIRECT SPARSE SOLVER RUNNING ON
 	1 HOST x 1 MPI RANK PER HOST x 2 THREADS PER RANK
        NUMBER OF EQUATIONS:  193104
        NUMBER OF RHS:        1
        NUMBER OF FLOPS:      3.674e+11
        SOLVER ELAPSED TIME:  10.0s

               CONVERGENCE CHECKS FOR EQUILIBRIUM ITERATION     2


 AVERAGE FORCE                       2.38       TIME AVG. FORCE        1.23    
 LARGEST SCALED RESIDUAL FORCE     -3.153E-05   AT NODE      25666   DOF  2
   INSTANCE: NDBR2P5-M-1                                                                     
  CORRESPONDING RESIDUAL FORCE     -3.153E-05
 LARGEST INCREMENT OF DISP.         1.400E-05   AT NODE        706   DOF  2
   INSTANCE: NDBR2P5-M-1                                                                     
 LARGEST CORRECTION TO DISP.        4.083E-10   AT NODE      40548   DOF  2
   INSTANCE: NDBR2P5-M-1                                                                     
          THE FORCE     EQUILIBRIUM EQUATIONS HAVE CONVERGED

 AVERAGE HEAT FLUX                   0.00       TIME AVG. HEAT FLUX   1.000E-02
 ALL HEAT FLUX RESIDUALS ARE ZERO
 ALL TEMP.    INCREMENTS ARE ZERO
 ALL CORRECTION TO TEMP.    ARE ZERO
          THERE IS ZERO HEAT FLUX EVERYWHERE

 MAXIMUM NON-PRESCRIBED INCREMENT IN TEMPERATURE IS    0.00    

 ITERATION SUMMARY FOR THE INCREMENT:   2 TOTAL ITERATIONS, OF WHICH
   0 ARE SEVERE DISCONTINUITY ITERATIONS AND  2 ARE EQUILIBRIUM ITERATIONS.

 TIME INCREMENT COMPLETED   10.0    ,  FRACTION OF STEP COMPLETED  0.290    
 STEP TIME COMPLETED        290.    ,  TOTAL TIME COMPLETED         290.    


  INCREMENT    30 STARTS. ATTEMPT NUMBER  1, TIME INCREMENT   10.0    
 
	UNSYMMETRIC NEW DIRECT SPARSE SOLVER RUNNING ON
 	1 HOST x 1 MPI RANK PER HOST x 2 THREADS PER RANK
        NUMBER OF EQUATIONS:  193104
        NUMBER OF RHS:        1
        NUMBER OF FLOPS:      3.674e+11
        SOLVER ELAPSED TIME:  10s

               CONVERGENCE CHECKS FOR EQUILIBRIUM ITERATION     1


 AVERAGE FORCE                       2.46       TIME AVG. FORCE        1.27    
 LARGEST SCALED RESIDUAL FORCE      4.726E-03   AT NODE      42989   DOF  2
   INSTANCE: NDBR2P5-M-1                                                                     
  CORRESPONDING RESIDUAL FORCE      4.726E-03
 LARGEST INCREMENT OF DISP.         1.400E-05   AT NODE        706   DOF  2
   INSTANCE: NDBR2P5-M-1                                                                     
 LARGEST CORRECTION TO DISP.        1.642E-08   AT NODE      34277   DOF  2
   INSTANCE: NDBR2P5-M-1                                                                     
          THE FORCE     EQUILIBRIUM EQUATIONS HAVE CONVERGED

 AVERAGE HEAT FLUX                   0.00       TIME AVG. HEAT FLUX   1.000E-02
 ALL HEAT FLUX RESIDUALS ARE ZERO
 ALL TEMP.    INCREMENTS ARE ZERO
 ALL CORRECTION TO TEMP.    ARE ZERO
          THERE IS ZERO HEAT FLUX EVERYWHERE

 MAXIMUM NON-PRESCRIBED INCREMENT IN TEMPERATURE IS    0.00    

 ITERATION SUMMARY FOR THE INCREMENT:   1 TOTAL ITERATIONS, OF WHICH
   0 ARE SEVERE DISCONTINUITY ITERATIONS AND  1 ARE EQUILIBRIUM ITERATIONS.

 TIME INCREMENT COMPLETED   10.0    ,  FRACTION OF STEP COMPLETED  0.300    
 STEP TIME COMPLETED        300.    ,  TOTAL TIME COMPLETED         300.    


  INCREMENT    31 STARTS. ATTEMPT NUMBER  1, TIME INCREMENT   10.0    
 
	UNSYMMETRIC NEW DIRECT SPARSE SOLVER RUNNING ON
 	1 HOST x 1 MPI RANK PER HOST x 2 THREADS PER RANK
        NUMBER OF EQUATIONS:  193104
        NUMBER OF RHS:        1
        NUMBER OF FLOPS:      3.674e+11
        SOLVER ELAPSED TIME:  9.6s

               CONVERGENCE CHECKS FOR EQUILIBRIUM ITERATION     1


 AVERAGE FORCE                       2.54       TIME AVG. FORCE        1.31    
 LARGEST SCALED RESIDUAL FORCE      4.032E-03   AT NODE      41936   DOF  2
   INSTANCE: NDBR2P5-M-1                                                                     
  CORRESPONDING RESIDUAL FORCE      4.032E-03
 LARGEST INCREMENT OF DISP.         1.400E-05   AT NODE        706   DOF  2
   INSTANCE: NDBR2P5-M-1                                                                     
 LARGEST CORRECTION TO DISP.        1.715E-08   AT NODE      40986   DOF  2
   INSTANCE: NDBR2P5-M-1                                                                     
          THE FORCE     EQUILIBRIUM EQUATIONS HAVE CONVERGED

 AVERAGE HEAT FLUX                   0.00       TIME AVG. HEAT FLUX   1.000E-02
 ALL HEAT FLUX RESIDUALS ARE ZERO
 ALL TEMP.    INCREMENTS ARE ZERO
 ALL CORRECTION TO TEMP.    ARE ZERO
          THERE IS ZERO HEAT FLUX EVERYWHERE

 MAXIMUM NON-PRESCRIBED INCREMENT IN TEMPERATURE IS    0.00    

 ITERATION SUMMARY FOR THE INCREMENT:   1 TOTAL ITERATIONS, OF WHICH
   0 ARE SEVERE DISCONTINUITY ITERATIONS AND  1 ARE EQUILIBRIUM ITERATIONS.

 TIME INCREMENT COMPLETED   10.0    ,  FRACTION OF STEP COMPLETED  0.310    
 STEP TIME COMPLETED        310.    ,  TOTAL TIME COMPLETED         310.    


  INCREMENT    32 STARTS. ATTEMPT NUMBER  1, TIME INCREMENT   10.0    
 
	UNSYMMETRIC NEW DIRECT SPARSE SOLVER RUNNING ON
 	1 HOST x 1 MPI RANK PER HOST x 2 THREADS PER RANK
        NUMBER OF EQUATIONS:  193104
        NUMBER OF RHS:        1
        NUMBER OF FLOPS:      3.674e+11
        SOLVER ELAPSED TIME:  9.5s

               CONVERGENCE CHECKS FOR EQUILIBRIUM ITERATION     1


 AVERAGE FORCE                       2.62       TIME AVG. FORCE        1.35    
 LARGEST SCALED RESIDUAL FORCE     -5.059E-03   AT NODE      29659   DOF  2
   INSTANCE: NDBR2P5-M-1                                                                     
  CORRESPONDING RESIDUAL FORCE     -5.059E-03
 LARGEST INCREMENT OF DISP.         1.400E-05   AT NODE        706   DOF  2
   INSTANCE: NDBR2P5-M-1                                                                     
 LARGEST CORRECTION TO DISP.        1.655E-08   AT NODE      41073   DOF  2
   INSTANCE: NDBR2P5-M-1                                                                     
          THE FORCE     EQUILIBRIUM EQUATIONS HAVE CONVERGED

 AVERAGE HEAT FLUX                   0.00       TIME AVG. HEAT FLUX   1.000E-02
 ALL HEAT FLUX RESIDUALS ARE ZERO
 ALL TEMP.    INCREMENTS ARE ZERO
 ALL CORRECTION TO TEMP.    ARE ZERO
          THERE IS ZERO HEAT FLUX EVERYWHERE

 MAXIMUM NON-PRESCRIBED INCREMENT IN TEMPERATURE IS    0.00    

 ITERATION SUMMARY FOR THE INCREMENT:   1 TOTAL ITERATIONS, OF WHICH
   0 ARE SEVERE DISCONTINUITY ITERATIONS AND  1 ARE EQUILIBRIUM ITERATIONS.

 TIME INCREMENT COMPLETED   10.0    ,  FRACTION OF STEP COMPLETED  0.320    
 STEP TIME COMPLETED        320.    ,  TOTAL TIME COMPLETED         320.    


  INCREMENT    33 STARTS. ATTEMPT NUMBER  1, TIME INCREMENT   10.0    
 
	UNSYMMETRIC NEW DIRECT SPARSE SOLVER RUNNING ON
 	1 HOST x 1 MPI RANK PER HOST x 2 THREADS PER RANK
        NUMBER OF EQUATIONS:  193104
        NUMBER OF RHS:        1
        NUMBER OF FLOPS:      3.674e+11
        SOLVER ELAPSED TIME:  9.8s

               CONVERGENCE CHECKS FOR EQUILIBRIUM ITERATION     1


 AVERAGE FORCE                       2.70       TIME AVG. FORCE        1.39    
 LARGEST SCALED RESIDUAL FORCE      6.487E-03   AT NODE      41773   DOF  2
   INSTANCE: NDBR2P5-M-1                                                                     
  CORRESPONDING RESIDUAL FORCE      6.487E-03
 LARGEST INCREMENT OF DISP.         1.400E-05   AT NODE        706   DOF  2
   INSTANCE: NDBR2P5-M-1                                                                     
 LARGEST CORRECTION TO DISP.        1.760E-08   AT NODE      40979   DOF  2
   INSTANCE: NDBR2P5-M-1                                                                     
          THE FORCE     EQUILIBRIUM EQUATIONS HAVE CONVERGED

 AVERAGE HEAT FLUX                   0.00       TIME AVG. HEAT FLUX   1.000E-02
 ALL HEAT FLUX RESIDUALS ARE ZERO
 ALL TEMP.    INCREMENTS ARE ZERO
 ALL CORRECTION TO TEMP.    ARE ZERO
          THERE IS ZERO HEAT FLUX EVERYWHERE

 MAXIMUM NON-PRESCRIBED INCREMENT IN TEMPERATURE IS    0.00    

 ITERATION SUMMARY FOR THE INCREMENT:   1 TOTAL ITERATIONS, OF WHICH
   0 ARE SEVERE DISCONTINUITY ITERATIONS AND  1 ARE EQUILIBRIUM ITERATIONS.

 TIME INCREMENT COMPLETED   10.0    ,  FRACTION OF STEP COMPLETED  0.330    
 STEP TIME COMPLETED        330.    ,  TOTAL TIME COMPLETED         330.    


  INCREMENT    34 STARTS. ATTEMPT NUMBER  1, TIME INCREMENT   10.0    
 
	UNSYMMETRIC NEW DIRECT SPARSE SOLVER RUNNING ON
 	1 HOST x 1 MPI RANK PER HOST x 2 THREADS PER RANK
        NUMBER OF EQUATIONS:  193104
        NUMBER OF RHS:        1
        NUMBER OF FLOPS:      3.674e+11
        SOLVER ELAPSED TIME:  9.8s

               CONVERGENCE CHECKS FOR EQUILIBRIUM ITERATION     1


 AVERAGE FORCE                       2.78       TIME AVG. FORCE        1.44    
 LARGEST SCALED RESIDUAL FORCE     -4.116E-03   AT NODE      27048   DOF  2
   INSTANCE: NDBR2P5-M-1                                                                     
  CORRESPONDING RESIDUAL FORCE     -4.116E-03
 LARGEST INCREMENT OF DISP.         1.400E-05   AT NODE        706   DOF  2
   INSTANCE: NDBR2P5-M-1                                                                     
 LARGEST CORRECTION TO DISP.        1.838E-08   AT NODE      41066   DOF  2
   INSTANCE: NDBR2P5-M-1                                                                     
          THE FORCE     EQUILIBRIUM EQUATIONS HAVE CONVERGED

 AVERAGE HEAT FLUX                   0.00       TIME AVG. HEAT FLUX   1.000E-02
 ALL HEAT FLUX RESIDUALS ARE ZERO
 ALL TEMP.    INCREMENTS ARE ZERO
 ALL CORRECTION TO TEMP.    ARE ZERO
          THERE IS ZERO HEAT FLUX EVERYWHERE

 MAXIMUM NON-PRESCRIBED INCREMENT IN TEMPERATURE IS    0.00    

 ITERATION SUMMARY FOR THE INCREMENT:   1 TOTAL ITERATIONS, OF WHICH
   0 ARE SEVERE DISCONTINUITY ITERATIONS AND  1 ARE EQUILIBRIUM ITERATIONS.

 TIME INCREMENT COMPLETED   10.0    ,  FRACTION OF STEP COMPLETED  0.340    
 STEP TIME COMPLETED        340.    ,  TOTAL TIME COMPLETED         340.    


  INCREMENT    35 STARTS. ATTEMPT NUMBER  1, TIME INCREMENT   10.0    
 
	UNSYMMETRIC NEW DIRECT SPARSE SOLVER RUNNING ON
 	1 HOST x 1 MPI RANK PER HOST x 2 THREADS PER RANK
        NUMBER OF EQUATIONS:  193104
        NUMBER OF RHS:        1
        NUMBER OF FLOPS:      3.674e+11
        SOLVER ELAPSED TIME:  9.7s

               CONVERGENCE CHECKS FOR EQUILIBRIUM ITERATION     1


 AVERAGE FORCE                       2.86       TIME AVG. FORCE        1.48    
 LARGEST SCALED RESIDUAL FORCE     -6.209E-03   AT NODE      40469   DOF  2
   INSTANCE: NDBR2P5-M-1                                                                     
  CORRESPONDING RESIDUAL FORCE     -6.209E-03
 LARGEST INCREMENT OF DISP.         1.400E-05   AT NODE        706   DOF  2
   INSTANCE: NDBR2P5-M-1                                                                     
 LARGEST CORRECTION TO DISP.        1.840E-08   AT NODE      40978   DOF  2
   INSTANCE: NDBR2P5-M-1                                                                     
          THE FORCE     EQUILIBRIUM EQUATIONS HAVE CONVERGED

 AVERAGE HEAT FLUX                   0.00       TIME AVG. HEAT FLUX   1.000E-02
 ALL HEAT FLUX RESIDUALS ARE ZERO
 ALL TEMP.    INCREMENTS ARE ZERO
 ALL CORRECTION TO TEMP.    ARE ZERO
          THERE IS ZERO HEAT FLUX EVERYWHERE

 MAXIMUM NON-PRESCRIBED INCREMENT IN TEMPERATURE IS    0.00    

 ITERATION SUMMARY FOR THE INCREMENT:   1 TOTAL ITERATIONS, OF WHICH
   0 ARE SEVERE DISCONTINUITY ITERATIONS AND  1 ARE EQUILIBRIUM ITERATIONS.

 TIME INCREMENT COMPLETED   10.0    ,  FRACTION OF STEP COMPLETED  0.350    
 STEP TIME COMPLETED        350.    ,  TOTAL TIME COMPLETED         350.    


  INCREMENT    36 STARTS. ATTEMPT NUMBER  1, TIME INCREMENT   10.0    
 
	UNSYMMETRIC NEW DIRECT SPARSE SOLVER RUNNING ON
 	1 HOST x 1 MPI RANK PER HOST x 2 THREADS PER RANK
        NUMBER OF EQUATIONS:  193104
        NUMBER OF RHS:        1
        NUMBER OF FLOPS:      3.674e+11
        SOLVER ELAPSED TIME:  9.7s

               CONVERGENCE CHECKS FOR EQUILIBRIUM ITERATION     1


 AVERAGE FORCE                       2.94       TIME AVG. FORCE        1.52    
 LARGEST SCALED RESIDUAL FORCE      4.382E-03   AT NODE      44211   DOF  2
   INSTANCE: NDBR2P5-M-1                                                                     
  CORRESPONDING RESIDUAL FORCE      4.382E-03
 LARGEST INCREMENT OF DISP.         1.400E-05   AT NODE        706   DOF  2
   INSTANCE: NDBR2P5-M-1                                                                     
 LARGEST CORRECTION TO DISP.        2.020E-08   AT NODE      42195   DOF  2
   INSTANCE: NDBR2P5-M-1                                                                     
          THE FORCE     EQUILIBRIUM EQUATIONS HAVE CONVERGED

 AVERAGE HEAT FLUX                   0.00       TIME AVG. HEAT FLUX   1.000E-02
 ALL HEAT FLUX RESIDUALS ARE ZERO
 ALL TEMP.    INCREMENTS ARE ZERO
 ALL CORRECTION TO TEMP.    ARE ZERO
          THERE IS ZERO HEAT FLUX EVERYWHERE

 MAXIMUM NON-PRESCRIBED INCREMENT IN TEMPERATURE IS    0.00    

 ITERATION SUMMARY FOR THE INCREMENT:   1 TOTAL ITERATIONS, OF WHICH
   0 ARE SEVERE DISCONTINUITY ITERATIONS AND  1 ARE EQUILIBRIUM ITERATIONS.

 TIME INCREMENT COMPLETED   10.0    ,  FRACTION OF STEP COMPLETED  0.360    
 STEP TIME COMPLETED        360.    ,  TOTAL TIME COMPLETED         360.    


  INCREMENT    37 STARTS. ATTEMPT NUMBER  1, TIME INCREMENT   10.0    
 
	UNSYMMETRIC NEW DIRECT SPARSE SOLVER RUNNING ON
 	1 HOST x 1 MPI RANK PER HOST x 2 THREADS PER RANK
        NUMBER OF EQUATIONS:  193104
        NUMBER OF RHS:        1
        NUMBER OF FLOPS:      3.674e+11
        SOLVER ELAPSED TIME:  9.7s

               CONVERGENCE CHECKS FOR EQUILIBRIUM ITERATION     1


 AVERAGE FORCE                       3.01       TIME AVG. FORCE        1.56    
 LARGEST SCALED RESIDUAL FORCE     -5.792E-03   AT NODE      31936   DOF  2
   INSTANCE: NDBR2P5-M-1                                                                     
  CORRESPONDING RESIDUAL FORCE     -5.792E-03
 LARGEST INCREMENT OF DISP.         1.400E-05   AT NODE        706   DOF  2
   INSTANCE: NDBR2P5-M-1                                                                     
 LARGEST CORRECTION TO DISP.        2.130E-08   AT NODE      40990   DOF  2
   INSTANCE: NDBR2P5-M-1                                                                     
          THE FORCE     EQUILIBRIUM EQUATIONS HAVE CONVERGED

 AVERAGE HEAT FLUX                   0.00       TIME AVG. HEAT FLUX   1.000E-02
 ALL HEAT FLUX RESIDUALS ARE ZERO
 ALL TEMP.    INCREMENTS ARE ZERO
 ALL CORRECTION TO TEMP.    ARE ZERO
          THERE IS ZERO HEAT FLUX EVERYWHERE

 MAXIMUM NON-PRESCRIBED INCREMENT IN TEMPERATURE IS    0.00    

 ITERATION SUMMARY FOR THE INCREMENT:   1 TOTAL ITERATIONS, OF WHICH
   0 ARE SEVERE DISCONTINUITY ITERATIONS AND  1 ARE EQUILIBRIUM ITERATIONS.

 TIME INCREMENT COMPLETED   10.0    ,  FRACTION OF STEP COMPLETED  0.370    
 STEP TIME COMPLETED        370.    ,  TOTAL TIME COMPLETED         370.    


  INCREMENT    38 STARTS. ATTEMPT NUMBER  1, TIME INCREMENT   10.0    
 
	UNSYMMETRIC NEW DIRECT SPARSE SOLVER RUNNING ON
 	1 HOST x 1 MPI RANK PER HOST x 2 THREADS PER RANK
        NUMBER OF EQUATIONS:  193104
        NUMBER OF RHS:        1
        NUMBER OF FLOPS:      3.674e+11
        SOLVER ELAPSED TIME:  10s

               CONVERGENCE CHECKS FOR EQUILIBRIUM ITERATION     1


 AVERAGE FORCE                       3.09       TIME AVG. FORCE        1.60    
 LARGEST SCALED RESIDUAL FORCE      9.651E-03   AT NODE      40538   DOF  2
   INSTANCE: NDBR2P5-M-1                                                                     
  CORRESPONDING RESIDUAL FORCE      9.651E-03
 LARGEST INCREMENT OF DISP.         1.400E-05   AT NODE        706   DOF  2
   INSTANCE: NDBR2P5-M-1                                                                     
 LARGEST CORRECTION TO DISP.        2.234E-08   AT NODE      40991   DOF  2
   INSTANCE: NDBR2P5-M-1                                                                     
          FORCE     EQUILIBRIUM NOT ACHIEVED WITHIN TOLERANCE.

 AVERAGE HEAT FLUX                   0.00       TIME AVG. HEAT FLUX   1.000E-02
 ALL HEAT FLUX RESIDUALS ARE ZERO
 ALL TEMP.    INCREMENTS ARE ZERO
 ALL CORRECTION TO TEMP.    ARE ZERO
          THERE IS ZERO HEAT FLUX EVERYWHERE
 
	UNSYMMETRIC NEW DIRECT SPARSE SOLVER RUNNING ON
 	1 HOST x 1 MPI RANK PER HOST x 2 THREADS PER RANK
        NUMBER OF EQUATIONS:  193104
        NUMBER OF RHS:        1
        NUMBER OF FLOPS:      3.674e+11
        SOLVER ELAPSED TIME:  9.8s

               CONVERGENCE CHECKS FOR EQUILIBRIUM ITERATION     2


 AVERAGE FORCE                       3.09       TIME AVG. FORCE        1.60    
 LARGEST SCALED RESIDUAL FORCE      1.249E-05   AT NODE      24619   DOF  2
   INSTANCE: NDBR2P5-M-1                                                                     
  CORRESPONDING RESIDUAL FORCE      1.249E-05
 LARGEST INCREMENT OF DISP.         1.400E-05   AT NODE        706   DOF  2
   INSTANCE: NDBR2P5-M-1                                                                     
 LARGEST CORRECTION TO DISP.       -5.086E-10   AT NODE      29501   DOF  2
   INSTANCE: NDBR2P5-M-1                                                                     
          THE FORCE     EQUILIBRIUM EQUATIONS HAVE CONVERGED

 AVERAGE HEAT FLUX                   0.00       TIME AVG. HEAT FLUX   1.000E-02
 ALL HEAT FLUX RESIDUALS ARE ZERO
 ALL TEMP.    INCREMENTS ARE ZERO
 ALL CORRECTION TO TEMP.    ARE ZERO
          THERE IS ZERO HEAT FLUX EVERYWHERE

 MAXIMUM NON-PRESCRIBED INCREMENT IN TEMPERATURE IS    0.00    

 ITERATION SUMMARY FOR THE INCREMENT:   2 TOTAL ITERATIONS, OF WHICH
   0 ARE SEVERE DISCONTINUITY ITERATIONS AND  2 ARE EQUILIBRIUM ITERATIONS.

 TIME INCREMENT COMPLETED   10.0    ,  FRACTION OF STEP COMPLETED  0.380    
 STEP TIME COMPLETED        380.    ,  TOTAL TIME COMPLETED         380.    


  INCREMENT    39 STARTS. ATTEMPT NUMBER  1, TIME INCREMENT   10.0    
 
	UNSYMMETRIC NEW DIRECT SPARSE SOLVER RUNNING ON
 	1 HOST x 1 MPI RANK PER HOST x 2 THREADS PER RANK
        NUMBER OF EQUATIONS:  193104
        NUMBER OF RHS:        1
        NUMBER OF FLOPS:      3.674e+11
        SOLVER ELAPSED TIME:  9.6s

               CONVERGENCE CHECKS FOR EQUILIBRIUM ITERATION     1


 AVERAGE FORCE                       3.17       TIME AVG. FORCE        1.64    
 LARGEST SCALED RESIDUAL FORCE     -4.529E-03   AT NODE      40646   DOF  2
   INSTANCE: NDBR2P5-M-1                                                                     
  CORRESPONDING RESIDUAL FORCE     -4.529E-03
 LARGEST INCREMENT OF DISP.         1.400E-05   AT NODE        706   DOF  2
   INSTANCE: NDBR2P5-M-1                                                                     
 LARGEST CORRECTION TO DISP.        2.332E-08   AT NODE      41062   DOF  2
   INSTANCE: NDBR2P5-M-1                                                                     
          THE FORCE     EQUILIBRIUM EQUATIONS HAVE CONVERGED

 AVERAGE HEAT FLUX                   0.00       TIME AVG. HEAT FLUX   1.000E-02
 ALL HEAT FLUX RESIDUALS ARE ZERO
 ALL TEMP.    INCREMENTS ARE ZERO
 ALL CORRECTION TO TEMP.    ARE ZERO
          THERE IS ZERO HEAT FLUX EVERYWHERE

 MAXIMUM NON-PRESCRIBED INCREMENT IN TEMPERATURE IS    0.00    

 ITERATION SUMMARY FOR THE INCREMENT:   1 TOTAL ITERATIONS, OF WHICH
   0 ARE SEVERE DISCONTINUITY ITERATIONS AND  1 ARE EQUILIBRIUM ITERATIONS.

 TIME INCREMENT COMPLETED   10.0    ,  FRACTION OF STEP COMPLETED  0.390    
 STEP TIME COMPLETED        390.    ,  TOTAL TIME COMPLETED         390.    


  INCREMENT    40 STARTS. ATTEMPT NUMBER  1, TIME INCREMENT   10.0    
 
	UNSYMMETRIC NEW DIRECT SPARSE SOLVER RUNNING ON
 	1 HOST x 1 MPI RANK PER HOST x 2 THREADS PER RANK
        NUMBER OF EQUATIONS:  193104
        NUMBER OF RHS:        1
        NUMBER OF FLOPS:      3.674e+11
        SOLVER ELAPSED TIME:  9.6s

               CONVERGENCE CHECKS FOR EQUILIBRIUM ITERATION     1


 AVERAGE FORCE                       3.25       TIME AVG. FORCE        1.68    
 LARGEST SCALED RESIDUAL FORCE     -5.309E-03   AT NODE      42996   DOF  3
   INSTANCE: NDBR2P5-M-1                                                                     
  CORRESPONDING RESIDUAL FORCE     -5.309E-03
 LARGEST INCREMENT OF DISP.         1.400E-05   AT NODE        706   DOF  2
   INSTANCE: NDBR2P5-M-1                                                                     
 LARGEST CORRECTION TO DISP.        2.501E-08   AT NODE      40993   DOF  2
   INSTANCE: NDBR2P5-M-1                                                                     
          THE FORCE     EQUILIBRIUM EQUATIONS HAVE CONVERGED

 AVERAGE HEAT FLUX                   0.00       TIME AVG. HEAT FLUX   1.000E-02
 ALL HEAT FLUX RESIDUALS ARE ZERO
 ALL TEMP.    INCREMENTS ARE ZERO
 ALL CORRECTION TO TEMP.    ARE ZERO
          THERE IS ZERO HEAT FLUX EVERYWHERE

 MAXIMUM NON-PRESCRIBED INCREMENT IN TEMPERATURE IS    0.00    

 ITERATION SUMMARY FOR THE INCREMENT:   1 TOTAL ITERATIONS, OF WHICH
   0 ARE SEVERE DISCONTINUITY ITERATIONS AND  1 ARE EQUILIBRIUM ITERATIONS.

 TIME INCREMENT COMPLETED   10.0    ,  FRACTION OF STEP COMPLETED  0.400    
 STEP TIME COMPLETED        400.    ,  TOTAL TIME COMPLETED         400.    


  INCREMENT    41 STARTS. ATTEMPT NUMBER  1, TIME INCREMENT   10.0    
 
	UNSYMMETRIC NEW DIRECT SPARSE SOLVER RUNNING ON
 	1 HOST x 1 MPI RANK PER HOST x 2 THREADS PER RANK
        NUMBER OF EQUATIONS:  193104
        NUMBER OF RHS:        1
        NUMBER OF FLOPS:      3.674e+11
        SOLVER ELAPSED TIME:  9.7s

               CONVERGENCE CHECKS FOR EQUILIBRIUM ITERATION     1


 AVERAGE FORCE                       3.32       TIME AVG. FORCE        1.72    
 LARGEST SCALED RESIDUAL FORCE      4.922E-03   AT NODE      31852   DOF  2
   INSTANCE: NDBR2P5-M-1                                                                     
  CORRESPONDING RESIDUAL FORCE      4.922E-03
 LARGEST INCREMENT OF DISP.         1.400E-05   AT NODE        706   DOF  2
   INSTANCE: NDBR2P5-M-1                                                                     
 LARGEST CORRECTION TO DISP.        2.571E-08   AT NODE      41148   DOF  2
   INSTANCE: NDBR2P5-M-1                                                                     
          THE FORCE     EQUILIBRIUM EQUATIONS HAVE CONVERGED

 AVERAGE HEAT FLUX                   0.00       TIME AVG. HEAT FLUX   1.000E-02
 ALL HEAT FLUX RESIDUALS ARE ZERO
 ALL TEMP.    INCREMENTS ARE ZERO
 ALL CORRECTION TO TEMP.    ARE ZERO
          THERE IS ZERO HEAT FLUX EVERYWHERE

 MAXIMUM NON-PRESCRIBED INCREMENT IN TEMPERATURE IS    0.00    

 ITERATION SUMMARY FOR THE INCREMENT:   1 TOTAL ITERATIONS, OF WHICH
   0 ARE SEVERE DISCONTINUITY ITERATIONS AND  1 ARE EQUILIBRIUM ITERATIONS.

 TIME INCREMENT COMPLETED   10.0    ,  FRACTION OF STEP COMPLETED  0.410    
 STEP TIME COMPLETED        410.    ,  TOTAL TIME COMPLETED         410.    


[...]
 LARGEST SCALED RESIDUAL FORCE       1.57       AT NODE      36637   DOF  3
   INSTANCE: NDBR2P5-M-1                                                                     
  CORRESPONDING RESIDUAL FORCE       1.57    
 LARGEST INCREMENT OF DISP.         2.738E-05   AT NODE      36630   DOF  2
   INSTANCE: NDBR2P5-M-1                                                                     
 LARGEST CORRECTION TO DISP.        1.564E-06   AT NODE      22010   DOF  3
   INSTANCE: NDBR2P5-M-1                                                                     
          FORCE     EQUILIBRIUM NOT ACHIEVED WITHIN TOLERANCE.

 AVERAGE HEAT FLUX                   0.00       TIME AVG. HEAT FLUX   1.000E-02
 ALL HEAT FLUX RESIDUALS ARE ZERO
 ALL TEMP.    INCREMENTS ARE ZERO
 ALL CORRECTION TO TEMP.    ARE ZERO
          THERE IS ZERO HEAT FLUX EVERYWHERE
 
	UNSYMMETRIC NEW DIRECT SPARSE SOLVER RUNNING ON
 	1 HOST x 1 MPI RANK PER HOST x 2 THREADS PER RANK
        NUMBER OF EQUATIONS:  193104
        NUMBER OF RHS:        1
        NUMBER OF FLOPS:      3.674e+11
        SOLVER ELAPSED TIME:  5.4s

               CONVERGENCE CHECKS FOR EQUILIBRIUM ITERATION     2


 AVERAGE FORCE                       2.68       TIME AVG. FORCE        3.17    
 LARGEST SCALED RESIDUAL FORCE      0.356       AT NODE      21988   DOF  3
   INSTANCE: NDBR2P5-M-1                                                                     
  CORRESPONDING RESIDUAL FORCE      0.356    
 LARGEST INCREMENT OF DISP.         2.474E-05   AT NODE      40592   DOF  2
   INSTANCE: NDBR2P5-M-1                                                                     
 LARGEST CORRECTION TO DISP.       -2.670E-06   AT NODE      36631   DOF  2
   INSTANCE: NDBR2P5-M-1                                                                     
          FORCE     EQUILIBRIUM NOT ACHIEVED WITHIN TOLERANCE.

 AVERAGE HEAT FLUX                   0.00       TIME AVG. HEAT FLUX   1.000E-02
 ALL HEAT FLUX RESIDUALS ARE ZERO
 ALL TEMP.    INCREMENTS ARE ZERO
 ALL CORRECTION TO TEMP.    ARE ZERO
          THERE IS ZERO HEAT FLUX EVERYWHERE
 
	UNSYMMETRIC NEW DIRECT SPARSE SOLVER RUNNING ON
 	1 HOST x 1 MPI RANK PER HOST x 2 THREADS PER RANK
        NUMBER OF EQUATIONS:  193104
        NUMBER OF RHS:        1
        NUMBER OF FLOPS:      3.674e+11
        SOLVER ELAPSED TIME:  5.1s

               CONVERGENCE CHECKS FOR EQUILIBRIUM ITERATION     3


 AVERAGE FORCE                       2.68       TIME AVG. FORCE        3.17    
 LARGEST SCALED RESIDUAL FORCE     -3.837E-02   AT NODE      39418   DOF  1
   INSTANCE: NDBR2P5-M-1                                                                     
  CORRESPONDING RESIDUAL FORCE     -3.837E-02
 LARGEST INCREMENT OF DISP.         2.477E-05   AT NODE      40592   DOF  2
   INSTANCE: NDBR2P5-M-1                                                                     
 LARGEST CORRECTION TO DISP.       -7.154E-08   AT NODE      24455   DOF  1
   INSTANCE: NDBR2P5-M-1                                                                     
          FORCE     EQUILIBRIUM NOT ACHIEVED WITHIN TOLERANCE.

 AVERAGE HEAT FLUX                   0.00       TIME AVG. HEAT FLUX   1.000E-02
 ALL HEAT FLUX RESIDUALS ARE ZERO
 ALL TEMP.    INCREMENTS ARE ZERO
 ALL CORRECTION TO TEMP.    ARE ZERO
          THERE IS ZERO HEAT FLUX EVERYWHERE
 
	UNSYMMETRIC NEW DIRECT SPARSE SOLVER RUNNING ON
 	1 HOST x 1 MPI RANK PER HOST x 2 THREADS PER RANK
        NUMBER OF EQUATIONS:  193104
        NUMBER OF RHS:        1
        NUMBER OF FLOPS:      3.674e+11
        SOLVER ELAPSED TIME:  4.9s

               CONVERGENCE CHECKS FOR EQUILIBRIUM ITERATION     4


 AVERAGE FORCE                       2.69       TIME AVG. FORCE        3.17    
 LARGEST SCALED RESIDUAL FORCE      4.500E-03   AT NODE      38286   DOF  2
   INSTANCE: NDBR2P5-M-1                                                                     
  CORRESPONDING RESIDUAL FORCE      4.500E-03
 LARGEST INCREMENT OF DISP.         2.475E-05   AT NODE      40592   DOF  2
   INSTANCE: NDBR2P5-M-1                                                                     
 LARGEST CORRECTION TO DISP.       -2.245E-08   AT NODE      34272   DOF  2
   INSTANCE: NDBR2P5-M-1                                                                     
          THE FORCE     EQUILIBRIUM EQUATIONS HAVE CONVERGED

 AVERAGE HEAT FLUX                   0.00       TIME AVG. HEAT FLUX   1.000E-02
 ALL HEAT FLUX RESIDUALS ARE ZERO
 ALL TEMP.    INCREMENTS ARE ZERO
 ALL CORRECTION TO TEMP.    ARE ZERO
          THERE IS ZERO HEAT FLUX EVERYWHERE

 MAXIMUM NON-PRESCRIBED INCREMENT IN TEMPERATURE IS    0.00    

 ITERATION SUMMARY FOR THE INCREMENT:   4 TOTAL ITERATIONS, OF WHICH
   0 ARE SEVERE DISCONTINUITY ITERATIONS AND  4 ARE EQUILIBRIUM ITERATIONS.

 TIME INCREMENT COMPLETED   10.0    ,  FRACTION OF STEP COMPLETED  0.970    
 STEP TIME COMPLETED        970.    ,  TOTAL TIME COMPLETED         970.    


  INCREMENT    98 STARTS. ATTEMPT NUMBER  1, TIME INCREMENT   10.0    
 
	UNSYMMETRIC NEW DIRECT SPARSE SOLVER RUNNING ON
 	1 HOST x 1 MPI RANK PER HOST x 2 THREADS PER RANK
        NUMBER OF EQUATIONS:  193104
        NUMBER OF RHS:        1
        NUMBER OF FLOPS:      3.674e+11
        SOLVER ELAPSED TIME:  5.1s

               CONVERGENCE CHECKS FOR EQUILIBRIUM ITERATION     1


 AVERAGE FORCE                       2.58       TIME AVG. FORCE        3.16    
 LARGEST SCALED RESIDUAL FORCE     -0.830       AT NODE      35004   DOF  1
   INSTANCE: NDBR2P5-M-1                                                                     
  CORRESPONDING RESIDUAL FORCE     -0.830    
 LARGEST INCREMENT OF DISP.         2.440E-05   AT NODE      40592   DOF  2
   INSTANCE: NDBR2P5-M-1                                                                     
 LARGEST CORRECTION TO DISP.       -1.331E-06   AT NODE      21904   DOF  3
   INSTANCE: NDBR2P5-M-1                                                                     
          FORCE     EQUILIBRIUM NOT ACHIEVED WITHIN TOLERANCE.

 AVERAGE HEAT FLUX                   0.00       TIME AVG. HEAT FLUX   1.000E-02
 ALL HEAT FLUX RESIDUALS ARE ZERO
 ALL TEMP.    INCREMENTS ARE ZERO
 ALL CORRECTION TO TEMP.    ARE ZERO
          THERE IS ZERO HEAT FLUX EVERYWHERE
 
	UNSYMMETRIC NEW DIRECT SPARSE SOLVER RUNNING ON
 	1 HOST x 1 MPI RANK PER HOST x 2 THREADS PER RANK
        NUMBER OF EQUATIONS:  193104
        NUMBER OF RHS:        1
        NUMBER OF FLOPS:      3.674e+11
        SOLVER ELAPSED TIME:  5.1s

               CONVERGENCE CHECKS FOR EQUILIBRIUM ITERATION     2


 AVERAGE FORCE                       2.60       TIME AVG. FORCE        3.16    
 LARGEST SCALED RESIDUAL FORCE      0.125       AT NODE      21988   DOF  3
   INSTANCE: NDBR2P5-M-1                                                                     
  CORRESPONDING RESIDUAL FORCE      0.125    
 LARGEST INCREMENT OF DISP.         2.280E-05   AT NODE      40592   DOF  2
   INSTANCE: NDBR2P5-M-1                                                                     
 LARGEST CORRECTION TO DISP.       -1.628E-06   AT NODE      35068   DOF  2
   INSTANCE: NDBR2P5-M-1                                                                     
          FORCE     EQUILIBRIUM NOT ACHIEVED WITHIN TOLERANCE.

 AVERAGE HEAT FLUX                   0.00       TIME AVG. HEAT FLUX   1.000E-02
 ALL HEAT FLUX RESIDUALS ARE ZERO
 ALL TEMP.    INCREMENTS ARE ZERO
 ALL CORRECTION TO TEMP.    ARE ZERO
          THERE IS ZERO HEAT FLUX EVERYWHERE
 
	UNSYMMETRIC NEW DIRECT SPARSE SOLVER RUNNING ON
 	1 HOST x 1 MPI RANK PER HOST x 2 THREADS PER RANK
        NUMBER OF EQUATIONS:  193104
        NUMBER OF RHS:        1
        NUMBER OF FLOPS:      3.674e+11
        SOLVER ELAPSED TIME:  5.0s

               CONVERGENCE CHECKS FOR EQUILIBRIUM ITERATION     3


 AVERAGE FORCE                       2.60       TIME AVG. FORCE        3.16    
 LARGEST SCALED RESIDUAL FORCE     -2.811E-02   AT NODE      24012   DOF  2
   INSTANCE: NDBR2P5-M-1                                                                     
  CORRESPONDING RESIDUAL FORCE     -2.811E-02
 LARGEST INCREMENT OF DISP.         2.282E-05   AT NODE      40592   DOF  2
   INSTANCE: NDBR2P5-M-1                                                                     
 LARGEST CORRECTION TO DISP.       -5.748E-08   AT NODE      21756   DOF  1
   INSTANCE: NDBR2P5-M-1                                                                     
          FORCE     EQUILIBRIUM NOT ACHIEVED WITHIN TOLERANCE.

 AVERAGE HEAT FLUX                   0.00       TIME AVG. HEAT FLUX   1.000E-02
 ALL HEAT FLUX RESIDUALS ARE ZERO
 ALL TEMP.    INCREMENTS ARE ZERO
 ALL CORRECTION TO TEMP.    ARE ZERO
          THERE IS ZERO HEAT FLUX EVERYWHERE
 
	UNSYMMETRIC NEW DIRECT SPARSE SOLVER RUNNING ON
 	1 HOST x 1 MPI RANK PER HOST x 2 THREADS PER RANK
        NUMBER OF EQUATIONS:  193104
        NUMBER OF RHS:        1
        NUMBER OF FLOPS:      3.674e+11
        SOLVER ELAPSED TIME:  5.1s

               CONVERGENCE CHECKS FOR EQUILIBRIUM ITERATION     4


 AVERAGE FORCE                       2.60       TIME AVG. FORCE        3.16    
 LARGEST SCALED RESIDUAL FORCE      2.131E-03   AT NODE      25836   DOF  1
   INSTANCE: NDBR2P5-M-1                                                                     
  CORRESPONDING RESIDUAL FORCE      2.131E-03
 LARGEST INCREMENT OF DISP.         2.281E-05   AT NODE      40592   DOF  2
   INSTANCE: NDBR2P5-M-1                                                                     
 LARGEST CORRECTION TO DISP.       -1.161E-08   AT NODE      35245   DOF  2
   INSTANCE: NDBR2P5-M-1                                                                     
          THE FORCE     EQUILIBRIUM EQUATIONS HAVE CONVERGED

 AVERAGE HEAT FLUX                   0.00       TIME AVG. HEAT FLUX   1.000E-02
 ALL HEAT FLUX RESIDUALS ARE ZERO
 ALL TEMP.    INCREMENTS ARE ZERO
 ALL CORRECTION TO TEMP.    ARE ZERO
          THERE IS ZERO HEAT FLUX EVERYWHERE

 MAXIMUM NON-PRESCRIBED INCREMENT IN TEMPERATURE IS    0.00    

 ITERATION SUMMARY FOR THE INCREMENT:   4 TOTAL ITERATIONS, OF WHICH
   0 ARE SEVERE DISCONTINUITY ITERATIONS AND  4 ARE EQUILIBRIUM ITERATIONS.

 TIME INCREMENT COMPLETED   10.0    ,  FRACTION OF STEP COMPLETED  0.980    
 STEP TIME COMPLETED        980.    ,  TOTAL TIME COMPLETED         980.    


  INCREMENT    99 STARTS. ATTEMPT NUMBER  1, TIME INCREMENT   10.0    
 
	UNSYMMETRIC NEW DIRECT SPARSE SOLVER RUNNING ON
 	1 HOST x 1 MPI RANK PER HOST x 2 THREADS PER RANK
        NUMBER OF EQUATIONS:  193104
        NUMBER OF RHS:        1
        NUMBER OF FLOPS:      3.674e+11
        SOLVER ELAPSED TIME:  5.4s

               CONVERGENCE CHECKS FOR EQUILIBRIUM ITERATION     1


 AVERAGE FORCE                       2.51       TIME AVG. FORCE        3.15    
 LARGEST SCALED RESIDUAL FORCE     -0.585       AT NODE      24095   DOF  1
   INSTANCE: NDBR2P5-M-1                                                                     
  CORRESPONDING RESIDUAL FORCE     -0.585    
 LARGEST INCREMENT OF DISP.         2.253E-05   AT NODE      40592   DOF  2
   INSTANCE: NDBR2P5-M-1                                                                     
 LARGEST CORRECTION TO DISP.       -1.106E-06   AT NODE      21923   DOF  3
   INSTANCE: NDBR2P5-M-1                                                                     
          FORCE     EQUILIBRIUM NOT ACHIEVED WITHIN TOLERANCE.

 AVERAGE HEAT FLUX                   0.00       TIME AVG. HEAT FLUX   1.000E-02
 ALL HEAT FLUX RESIDUALS ARE ZERO
 ALL TEMP.    INCREMENTS ARE ZERO
 ALL CORRECTION TO TEMP.    ARE ZERO
          THERE IS ZERO HEAT FLUX EVERYWHERE
 
	UNSYMMETRIC NEW DIRECT SPARSE SOLVER RUNNING ON
 	1 HOST x 1 MPI RANK PER HOST x 2 THREADS PER RANK
        NUMBER OF EQUATIONS:  193104
        NUMBER OF RHS:        1
        NUMBER OF FLOPS:      3.674e+11
        SOLVER ELAPSED TIME:  5.5s

               CONVERGENCE CHECKS FOR EQUILIBRIUM ITERATION     2


 AVERAGE FORCE                       2.52       TIME AVG. FORCE        3.15    
 LARGEST SCALED RESIDUAL FORCE      5.424E-02   AT NODE      21988   DOF  3
   INSTANCE: NDBR2P5-M-1                                                                     
  CORRESPONDING RESIDUAL FORCE      5.424E-02
 LARGEST INCREMENT OF DISP.         2.146E-05   AT NODE      40592   DOF  2
   INSTANCE: NDBR2P5-M-1                                                                     
 LARGEST CORRECTION TO DISP.       -1.109E-06   AT NODE      35073   DOF  2
   INSTANCE: NDBR2P5-M-1                                                                     
          FORCE     EQUILIBRIUM NOT ACHIEVED WITHIN TOLERANCE.

 AVERAGE HEAT FLUX                   0.00       TIME AVG. HEAT FLUX   1.000E-02
 ALL HEAT FLUX RESIDUALS ARE ZERO
 ALL TEMP.    INCREMENTS ARE ZERO
 ALL CORRECTION TO TEMP.    ARE ZERO
          THERE IS ZERO HEAT FLUX EVERYWHERE
 
	UNSYMMETRIC NEW DIRECT SPARSE SOLVER RUNNING ON
 	1 HOST x 1 MPI RANK PER HOST x 2 THREADS PER RANK
        NUMBER OF EQUATIONS:  193104
        NUMBER OF RHS:        1
        NUMBER OF FLOPS:      3.674e+11
        SOLVER ELAPSED TIME:  4.8s

               CONVERGENCE CHECKS FOR EQUILIBRIUM ITERATION     3


 AVERAGE FORCE                       2.52       TIME AVG. FORCE        3.15    
 LARGEST SCALED RESIDUAL FORCE     -4.661E-04   AT NODE      24194   DOF  1
   INSTANCE: NDBR2P5-M-1                                                                     
  CORRESPONDING RESIDUAL FORCE     -4.661E-04
 LARGEST INCREMENT OF DISP.         2.147E-05   AT NODE      40592   DOF  2
   INSTANCE: NDBR2P5-M-1                                                                     
 LARGEST CORRECTION TO DISP.        2.428E-08   AT NODE      21945   DOF  3
   INSTANCE: NDBR2P5-M-1                                                                     
          THE FORCE     EQUILIBRIUM EQUATIONS HAVE CONVERGED

 AVERAGE HEAT FLUX                   0.00       TIME AVG. HEAT FLUX   1.000E-02
 ALL HEAT FLUX RESIDUALS ARE ZERO
 ALL TEMP.    INCREMENTS ARE ZERO
 ALL CORRECTION TO TEMP.    ARE ZERO
          THERE IS ZERO HEAT FLUX EVERYWHERE

 MAXIMUM NON-PRESCRIBED INCREMENT IN TEMPERATURE IS    0.00    

 ITERATION SUMMARY FOR THE INCREMENT:   3 TOTAL ITERATIONS, OF WHICH
   0 ARE SEVERE DISCONTINUITY ITERATIONS AND  3 ARE EQUILIBRIUM ITERATIONS.

 TIME INCREMENT COMPLETED   10.0    ,  FRACTION OF STEP COMPLETED  0.990    
 STEP TIME COMPLETED        990.    ,  TOTAL TIME COMPLETED         990.    


  INCREMENT   100 STARTS. ATTEMPT NUMBER  1, TIME INCREMENT   10.0    
 
	UNSYMMETRIC NEW DIRECT SPARSE SOLVER RUNNING ON
 	1 HOST x 1 MPI RANK PER HOST x 2 THREADS PER RANK
        NUMBER OF EQUATIONS:  193104
        NUMBER OF RHS:        1
        NUMBER OF FLOPS:      3.674e+11
        SOLVER ELAPSED TIME:  5.0s

               CONVERGENCE CHECKS FOR EQUILIBRIUM ITERATION     1


 AVERAGE FORCE                       2.45       TIME AVG. FORCE        3.15    
 LARGEST SCALED RESIDUAL FORCE     -5.952E-02   AT NODE      35326   DOF  2
   INSTANCE: NDBR2P5-M-1                                                                     
  CORRESPONDING RESIDUAL FORCE     -5.952E-02
 LARGEST INCREMENT OF DISP.         2.126E-05   AT NODE      40592   DOF  2
   INSTANCE: NDBR2P5-M-1                                                                     
 LARGEST CORRECTION TO DISP.       -9.384E-07   AT NODE      21757   DOF  3
   INSTANCE: NDBR2P5-M-1                                                                     
          FORCE     EQUILIBRIUM NOT ACHIEVED WITHIN TOLERANCE.

 AVERAGE HEAT FLUX                   0.00       TIME AVG. HEAT FLUX   1.000E-02
 ALL HEAT FLUX RESIDUALS ARE ZERO
 ALL TEMP.    INCREMENTS ARE ZERO
 ALL CORRECTION TO TEMP.    ARE ZERO
          THERE IS ZERO HEAT FLUX EVERYWHERE
 
	UNSYMMETRIC NEW DIRECT SPARSE SOLVER RUNNING ON
 	1 HOST x 1 MPI RANK PER HOST x 2 THREADS PER RANK
        NUMBER OF EQUATIONS:  193104
        NUMBER OF RHS:        1
        NUMBER OF FLOPS:      3.674e+11
        SOLVER ELAPSED TIME:  5.1s

               CONVERGENCE CHECKS FOR EQUILIBRIUM ITERATION     2


 AVERAGE FORCE                       2.46       TIME AVG. FORCE        3.15    
 LARGEST SCALED RESIDUAL FORCE      2.682E-02   AT NODE      21988   DOF  3
   INSTANCE: NDBR2P5-M-1                                                                     
  CORRESPONDING RESIDUAL FORCE      2.682E-02
 LARGEST INCREMENT OF DISP.         2.048E-05   AT NODE      40592   DOF  2
   INSTANCE: NDBR2P5-M-1                                                                     
 LARGEST CORRECTION TO DISP.       -7.721E-07   AT NODE      40592   DOF  2
   INSTANCE: NDBR2P5-M-1                                                                     
          FORCE     EQUILIBRIUM NOT ACHIEVED WITHIN TOLERANCE.

 AVERAGE HEAT FLUX                   0.00       TIME AVG. HEAT FLUX   1.000E-02
 ALL HEAT FLUX RESIDUALS ARE ZERO
 ALL TEMP.    INCREMENTS ARE ZERO
 ALL CORRECTION TO TEMP.    ARE ZERO
          THERE IS ZERO HEAT FLUX EVERYWHERE
 
	UNSYMMETRIC NEW DIRECT SPARSE SOLVER RUNNING ON
 	1 HOST x 1 MPI RANK PER HOST x 2 THREADS PER RANK
        NUMBER OF EQUATIONS:  193104
        NUMBER OF RHS:        1
        NUMBER OF FLOPS:      3.674e+11
        SOLVER ELAPSED TIME:  4.9s

               CONVERGENCE CHECKS FOR EQUILIBRIUM ITERATION     3


 AVERAGE FORCE                       2.46       TIME AVG. FORCE        3.15    
 LARGEST SCALED RESIDUAL FORCE     -2.965E-04   AT NODE      24194   DOF  1
   INSTANCE: NDBR2P5-M-1                                                                     
  CORRESPONDING RESIDUAL FORCE     -2.965E-04
 LARGEST INCREMENT OF DISP.         2.049E-05   AT NODE      40592   DOF  2
   INSTANCE: NDBR2P5-M-1                                                                     
 LARGEST CORRECTION TO DISP.       -1.624E-08   AT NODE      22054   DOF  1
   INSTANCE: NDBR2P5-M-1                                                                     
          THE FORCE     EQUILIBRIUM EQUATIONS HAVE CONVERGED

 AVERAGE HEAT FLUX                   0.00       TIME AVG. HEAT FLUX   1.000E-02
 ALL HEAT FLUX RESIDUALS ARE ZERO
 ALL TEMP.    INCREMENTS ARE ZERO
 ALL CORRECTION TO TEMP.    ARE ZERO
          THERE IS ZERO HEAT FLUX EVERYWHERE

 MAXIMUM NON-PRESCRIBED INCREMENT IN TEMPERATURE IS    0.00    

 ITERATION SUMMARY FOR THE INCREMENT:   3 TOTAL ITERATIONS, OF WHICH
   0 ARE SEVERE DISCONTINUITY ITERATIONS AND  3 ARE EQUILIBRIUM ITERATIONS.

 TIME INCREMENT COMPLETED   10.0    ,  FRACTION OF STEP COMPLETED   1.00    
 STEP TIME COMPLETED       1.000E+03,  TOTAL TIME COMPLETED        1.000E+03


          THE ANALYSIS HAS BEEN COMPLETED



     ANALYSIS SUMMARY:
     TOTAL OF        100  INCREMENTS
                       0  CUTBACKS IN AUTOMATIC INCREMENTATION
                     207  ITERATIONS INCLUDING CONTACT ITERATIONS IF PRESENT
                     207  PASSES THROUGH THE EQUATION SOLVER OF WHICH 
                     207  INVOLVE MATRIX DECOMPOSITION, INCLUDING
                       0  DECOMPOSITION(S) OF THE MASS MATRIX
                       1  REORDERING OF EQUATIONS TO MINIMIZE WAVEFRONT
                       0  ADDITIONAL RESIDUAL EVALUATIONS FOR LINE SEARCHES
                       0  ADDITIONAL OPERATOR EVALUATIONS FOR LINE SEARCHES
                       5  WARNING MESSAGES DURING USER INPUT PROCESSING
                       0  WARNING MESSAGES DURING ANALYSIS
                       0  ANALYSIS WARNINGS ARE NUMERICAL PROBLEM MESSAGES
                       0  ANALYSIS WARNINGS ARE NEGATIVE EIGENVALUE MESSAGES
                       0  ERROR MESSAGES



     JOB TIME SUMMARY
       USER TIME (SEC)      =     2.26E+03
       SYSTEM TIME (SEC)    =      34.    
       TOTAL CPU TIME (SEC) =     2.30E+03
       WALLCLOCK TIME (SEC) =         2957
       MEMORY PEAK (GB)     =            1
