*Heading
** Job name: Job-1 Model name: Model-1
** Generated by: Abaqus/CAE 2023.HF4
*Preprint, echo=NO, model=NO, history=NO, contact=NO
**
** PARTS
**
*Part, name=elastic_hole_plate
*Node
      1, 0.0145979999, 0.0141120004
      2, 0.0145979999, 0.0161071308
      3, 0.0145979999, 0.0181022603
      4, 0.0145979999, 0.0200973917
      5, 0.0145979999, 0.0220925212
      6, 0.0145979999, 0.0240876526
      7, 0.0145979999, 0.0260827821
      8, 0.0145979999, 0.0280779134
      9, 0.0145979999,  0.030073043
     10, 0.0145979999, 0.0320681743
     11, 0.0145979999, 0.0340633057
     12, 0.0145979999, 0.0360584334
     13, 0.0145979999, 0.0380535647
     14, 0.0145979999, 0.0400486961
     15, 0.0145979999, 0.0420438275
     16, 0.0145979999, 0.0440389551
     17, 0.0145979999, 0.0460340865
     18, 0.0145979999, 0.0480292179
     19, 0.0145979999, 0.0500243492
     20, 0.0145979999, 0.0520194769
** ... 3981 like lines cut
*Element, type=CPE8HT
  1,   1,   2,  26,  25, 193, 194, 195, 196
  2,   2,   3,  27,  26, 197, 198, 199, 194
  3,   3,   4,  28,  27, 200, 201, 202, 198
  4,   4,   5,  29,  28, 203, 204, 205, 201
  5,   5,   6,  30,  29, 206, 207, 208, 204
  6,   6,   7,  31,  30, 209, 210, 211, 207
  7,   7,   8,  32,  31, 212, 213, 214, 210
  8,   8,   9,  33,  32, 215, 216, 217, 213
  9,   9,  10,  34,  33, 218, 219, 220, 216
 10,  10,  11,  35,  34, 221, 222, 223, 219
 11,  11,  12,  36,  35, 224, 225, 226, 222
 12,  12,  13,  37,  36, 227, 228, 229, 225
 13,  13,  14,  38,  37, 230, 231, 232, 228
 14,  14,  15,  39,  38, 233, 234, 235, 231
 15,  15,  16,  40,  39, 236, 237, 238, 234
 16,  16,  17,  41,  40, 239, 240, 241, 237
 17,  17,  18,  42,  41, 242, 243, 244, 240
 18,  18,  19,  43,  42, 245, 246, 247, 243
 19,  19,  20,  44,  43, 248, 249, 250, 246
 20,  20,  21,  45,  44, 251, 252, 253, 249
** ... 1248 like lines cut
*Nset, nset=Set-1, generate
    1,  4001,     1
*Elset, elset=Set-1, generate
    1,  1268,     1
** Section: Section-1
*Solid Section, elset=Set-1, material=Material-1
,
*End Part
**  
**
** ASSEMBLY
**
*Assembly, name=Assembly
**  
*Instance, name=Part-1-1, part=elastic_hole_plate
*End Instance
**  
*Nset, nset=Set-1, instance=Part-1-1, generate
    1,  4001,     1
*Elset, elset=Set-1, instance=Part-1-1, generate
    1,  1268,     1
*Nset, nset=Set-2, instance=Part-1-1, generate
    1,  4001,     1
*Elset, elset=Set-2, instance=Part-1-1, generate
    1,  1268,     1
*Nset, nset=Set-3, instance=Part-1-1
  169,  170,  171,  172,  173,  174,  175,  176,  177,  178,  179,  180,  181,  182,  183,  184
  185,  186,  187,  188,  189,  190,  191,  192,  499,  502,  504,  506,  508,  510,  512,  514
  516,  518,  520,  522,  524,  526,  528,  530,  532,  534,  536,  538,  540,  542,  544, 2308
 2311, 2315, 2317, 2318, 2320, 2324, 2325, 2333, 2342, 2351, 2368, 2371, 2375, 2380, 2389, 2403
 2913, 2916, 2926, 2931, 2933, 2936, 2938, 2941, 3068, 3072, 3127, 3134, 3156, 3190, 3287, 3326
 3383,
*Elset, elset=Set-3, instance=Part-1-1
 139, 140, 141, 142, 143, 144, 145, 146, 147, 148, 149, 150, 151, 152, 153, 154
 155, 156, 157, 158, 159, 160, 161, 739, 740, 743, 744, 745, 746, 747, 748, 785
 786, 804, 806, 815, 829, 865, 881, 910
*Nset, nset=Set-4, instance=Part-1-1
 1896, 1897, 1899, 1900, 1902, 1903, 1904, 1905, 1907, 1908, 1911, 1912, 1913, 1914, 1917, 1920
 1921, 1922, 1923, 1925, 2269, 2272, 2274, 2276, 2278, 2280, 2282, 2284, 2286, 2288, 2290, 2292
 2294, 2296, 2298, 2300, 2302, 2304, 2306, 2322, 2330, 2331, 2337, 2340, 2341, 2349, 2365, 2366
 2372, 2376, 2379, 2382, 2393, 2394, 2395, 2396, 2401, 2943, 2951, 3025, 3027, 3031, 3035, 3037
 3040, 3044, 3047, 3048, 3051, 3106, 3158, 3182, 3205, 3283, 3370
*Elset, elset=Set-4, instance=Part-1-1
 713, 714, 715, 716, 717, 718, 719, 720, 721, 722, 723, 724, 725, 726, 727, 728
 729, 730, 731, 749, 751, 771, 772, 773, 774, 775, 776, 777, 778, 779, 780, 797
 817, 826, 835, 863, 902
*Nset, nset=Set-8, instance=Part-1-1
   24,   48,   72,   96,  120,  144,  168,  169,  170,  171,  172,  173,  174,  175,  176,  177
  178,  179,  180,  181,  182,  183,  184,  185,  186,  187,  188,  189,  190,  191,  192,  261
  308,  355,  402,  449,  496,  499,  502,  504,  506,  508,  510,  512,  514,  516,  518,  520
  522,  524,  526,  528,  530,  532,  534,  536,  538,  540,  542,  543,  544,  545,  546,  547
  549,  550,  551,  552,  555,  556,  558,  559,  560,  561,  564,  567,  568,  570,  573,  574
  576,  577,  578,  579,  581,  583,  584,  586,  587,  588,  589,  590,  591,  592,  593,  595
  596,  597,  598,  599,  600,  602,  604, 1056, 1094, 1132, 1170, 1208, 1246, 1284, 1322, 1360
 1398, 1436, 1474, 1512, 1550, 1588, 1626, 1664, 1702, 1740, 1778, 1816, 1854, 1857, 1859, 1861
 1863, 1865, 1867, 1869, 1871, 1873, 1875, 1877, 1879, 1881, 1883, 1885, 1887, 1889, 1891, 1892
 1893, 1894, 1896, 1897, 1898, 1899, 1900, 1901, 1902, 1903, 1904, 1905, 1907, 1908, 1911, 1912
 1913, 1914, 1915, 1917, 1918, 1919, 1920, 1921, 1922, 1923, 1925, 2036, 2075, 2114, 2153, 2192
 2231, 2269, 2270, 2272, 2274, 2276, 2278, 2280, 2282, 2284, 2286, 2288, 2290, 2292, 2294, 2296
 2298, 2300, 2302, 2304, 2306, 2307, 2308, 2309, 2310, 2311, 2312, 2313, 2314, 2315, 2316, 2317
 2318, 2319, 2320, 2321, 2322, 2323, 2324, 2325, 2326, 2327, 2328, 2329, 2330, 2331, 2332, 2333
 2334, 2335, 2336, 2337, 2338, 2339, 2340, 2341, 2342, 2343, 2344, 2345, 2346, 2347, 2348, 2349
 2350, 2351, 2352, 2353, 2354, 2355, 2356, 2357, 2358, 2359, 2360, 2361, 2362, 2363, 2364, 2365
 2366, 2367, 2368, 2369, 2370, 2371, 2372, 2373, 2374, 2375, 2376, 2377, 2378, 2379, 2380, 2381
 2382, 2383, 2384, 2385, 2386, 2387, 2388, 2389, 2390, 2391, 2392, 2393, 2394, 2395, 2396, 2397
 2398, 2399, 2400, 2401, 2402, 2403, 2908, 2913, 2916, 2919, 2922, 2926, 2931, 2933, 2936, 2938
 2941, 2943, 2946, 2949, 2951, 2960, 2967, 2969, 2975, 2978, 2985, 2989, 2991, 2996, 2998, 3003
** ... 5 like lines cut
*Elset, elset=Set-8, instance=Part-1-1
   23,   46,   69,   92,  115,  138,  139,  140,  141,  142,  143,  144,  145,  146,  147,  148
  149,  150,  151,  152,  153,  154,  155,  156,  157,  158,  159,  160,  161,  180,  199,  218
  237,  256,  275,  294,  313,  332,  351,  370,  389,  408,  427,  446,  465,  484,  503,  522
  541,  560,  579,  580,  581,  582,  583,  584,  585,  586,  587,  588,  589,  590,  591,  592
  593,  594,  595,  596,  597,  598,  599,  618,  637,  656,  675,  694,  713,  714,  715,  716
  717,  718,  719,  720,  721,  722,  723,  724,  725,  726,  727,  728,  729,  730,  731,  738
  739,  740,  741,  742,  743,  744,  745,  746,  747,  748,  749,  750,  751,  753,  755,  756
  758,  759,  760,  761,  762,  763,  764,  765,  766,  767,  768,  769,  770,  771,  772,  773
  774,  775,  776,  777,  778,  779,  780,  781,  783,  784,  785,  786,  787,  789,  790,  792
  793,  794,  796,  797,  798,  800,  801,  802,  804,  805,  806,  807,  808,  809,  810,  811
  812,  813,  814,  815,  817,  826,  829,  832,  835,  836,  838,  840,  841,  842,  844,  845
  846,  862,  863,  865,  881,  902,  905,  906,  910, 1221, 1222, 1227, 1229, 1230, 1231
*Nset, nset=Set-9, instance=Part-1-1
   24,   48,   72,   96,  120,  144,  168,  192,  261,  308,  355,  402,  449,  496,  543,  545
  546,  547,  549,  550,  551,  552,  555,  556,  558,  559,  560,  561,  564,  567,  568,  570
  573,  574,  576,  577,  578,  579,  581,  583,  584,  586,  587,  588,  589,  590,  591,  592
  593,  595,  596,  597,  598,  599,  600,  602,  604, 1056, 1094, 1132, 1170, 1208, 1246, 1284
 1322, 1360, 1398, 1436, 1474, 1512, 1550, 1588, 1626, 1664, 1702, 1740, 1778, 1816, 1854, 1857
 1859, 1861, 1863, 1865, 1867, 1869, 1871, 1873, 1875, 1877, 1879, 1881, 1883, 1885, 1887, 1889
 1891, 1892, 1893, 1894, 1898, 1901, 1915, 1918, 1919, 1922, 2036, 2075, 2114, 2153, 2192, 2231
 2270,
*Elset, elset=Set-9, instance=Part-1-1
  23,  46,  69,  92, 115, 138, 161, 180, 199, 218, 237, 256, 275, 294, 313, 332
 351, 370, 389, 408, 427, 446, 465, 484, 503, 522, 541, 560, 579, 580, 581, 582
 583, 584, 585, 586, 587, 588, 589, 590, 591, 592, 593, 594, 595, 596, 597, 598
 599, 618, 637, 656, 675, 694, 713
*Nset, nset=Set-10, instance=Part-1-1
   24,   48,   72,   96,  120,  144,  168,  192,  261,  308,  355,  402,  449,  496,  543,  545
  546,  547,  549,  550,  551,  552,  555,  556,  558,  559,  560,  561,  564,  567,  568,  570
  573,  574,  576,  577,  578,  579,  581,  583,  584,  586,  587,  588,  589,  590,  591,  592
  593,  595,  596,  597,  598,  599,  600,  602,  604, 1056, 1094, 1132, 1170, 1208, 1246, 1284
 1322, 1360, 1398, 1436, 1474, 1512, 1550, 1588, 1626, 1664, 1702, 1740, 1778, 1816, 1854, 1857
 1859, 1861, 1863, 1865, 1867, 1869, 1871, 1873, 1875, 1877, 1879, 1881, 1883, 1885, 1887, 1889
 1891, 1892, 1893, 1894, 1898, 1901, 1915, 1918, 1919, 1922, 2036, 2075, 2114, 2153, 2192, 2231
 2270,
*Elset, elset=Set-10, instance=Part-1-1
  23,  46,  69,  92, 115, 138, 161, 180, 199, 218, 237, 256, 275, 294, 313, 332
 351, 370, 389, 408, 427, 446, 465, 484, 503, 522, 541, 560, 579, 580, 581, 582
 583, 584, 585, 586, 587, 588, 589, 590, 591, 592, 593, 594, 595, 596, 597, 598
 599, 618, 637, 656, 675, 694, 713
*Nset, nset=Set-11, instance=Part-1-1
   24,   48,   72,   96,  120,  144,  168,  192,  261,  308,  355,  402,  449,  496,  543,  545
  546,  547,  549,  550,  551,  552,  555,  556,  558,  559,  560,  561,  564,  567,  568,  570
  573,  574,  576,  577,  578,  579,  581,  583,  584,  586,  587,  588,  589,  590,  591,  592
  593,  595,  596,  597,  598,  599,  600,  602,  604, 1056, 1094, 1132, 1170, 1208, 1246, 1284
 1322, 1360, 1398, 1436, 1474, 1512, 1550, 1588, 1626, 1664, 1702, 1740, 1778, 1816, 1854, 1857
 1859, 1861, 1863, 1865, 1867, 1869, 1871, 1873, 1875, 1877, 1879, 1881, 1883, 1885, 1887, 1889
 1891, 1892, 1893, 1894, 1898, 1901, 1915, 1918, 1919, 1922, 2036, 2075, 2114, 2153, 2192, 2231
 2270,
*Elset, elset=Set-11, instance=Part-1-1
  23,  46,  69,  92, 115, 138, 161, 180, 199, 218, 237, 256, 275, 294, 313, 332
 351, 370, 389, 408, 427, 446, 465, 484, 503, 522, 541, 560, 579, 580, 581, 582
 583, 584, 585, 586, 587, 588, 589, 590, 591, 592, 593, 594, 595, 596, 597, 598
 599, 618, 637, 656, 675, 694, 713
*Nset, nset=Set-12, instance=Part-1-1, generate
    1,  4001,     1
*Elset, elset=Set-12, instance=Part-1-1, generate
    1,  1268,     1
*Nset, nset=Set-13, instance=Part-1-1, generate
    1,  4001,     1
*Elset, elset=Set-13, instance=Part-1-1, generate
    1,  1268,     1
*Nset, nset=whole_plate, instance=Part-1-1, generate
    1,  4001,     1
*Elset, elset=_Surf-1_S2, internal, instance=Part-1-1, generate
  23,  161,   23
*Elset, elset=_Surf-1_S3, internal, instance=Part-1-1, generate
 580,  598,    1
*Surface, type=ELEMENT, name=Surf-1
_Surf-1_S2, S2
_Surf-1_S3, S3
*Elset, elset=_Surf-2_S2, internal, instance=Part-1-1, generate
  23,  161,   23
*Elset, elset=_Surf-2_S3, internal, instance=Part-1-1, generate
 580,  598,    1
*Surface, type=ELEMENT, name=Surf-2
_Surf-2_S2, S2
_Surf-2_S3, S3
*End Assembly
** 
** MATERIALS
** 
** Mechanical props: E (Pa), nu (dimless), element_flag (0 or 1)
** if element_flag = 0, element CPE8RT is used
** if element_flag = 1, element CPE8HT is used
** 
** Thermal props: R (J / (mol K), T (K), VH (m^3/mol), DL (m^2/s)
** 
** STATEV(1): eps_elastic(1)
** STATEV(2): eps_elastic(2)
** STATEV(3): eps_elastic(3)
** STATEV(4): eps_elastic(4)
** STATEV(5): hydrostatic_stress
** STATEV(6): Cbar_L
** STATEV(7): theta_L
** 
*Material, name=Material-1
*Density
1.,
*Depvar
      6,
*User Material, constants=4, type=THERMAL
 8.31446,    293.,   2e-06, 3.8e-11
*User Material, constants=3, type=MECHANICAL
 2e+11, 0.3,  2.
** 
** PREDEFINED FIELDS
** 
** Name: CL_bar_field   Type: Temperature
*Initial Conditions, type=TEMPERATURE
Set-13, 20.
** ----------------------------------------------------------------
** 
** STEP: Step-1
** 
*Step, name=Step-1, nlgeom=YES, inc=100000
*Coupled Temperature-displacement, creep=none
1000., 1e+06, 
** 
** BOUNDARY CONDITIONS
** 
** Name: Xsymm Type: Symmetry/Antisymmetry/Encastre
*Boundary
Set-3, XSYMM
** Name: Ysymm Type: Symmetry/Antisymmetry/Encastre
*Boundary
Set-4, YSYMM
** 
** LOADS
** 
** Name: Load-1   Type: Pressure
*Dsload
Surf-2, P, -1e+08
** 
** OUTPUT REQUESTS
** 
*Restart, write, frequency=0
** 
** FIELD OUTPUT: F-Output-1
** 
*Output, field, frequency=10
*Node Output
COORD, NT
*Element Output, directions=YES
COORD, S, SDV
** 
** HISTORY OUTPUT: H-Output-1
** 
*Output, history, frequency=10
*Node Output, nset=whole_plate
COOR1, COOR2
*End Step
