1

   Abaqus 2023.HF4                                  Date 28-Oct-2024   Time 22:09:08
   For use by AALTO UNIVERSITY under license from Dassault Systemes or its subsidiary.

                                                                                 
                                                                                 
 STEP    1     INCREMENT     1     STEP TIME    0.00    


                        S T E P       1     C O U P L E D - T E M P E R A T U R E - D I S P L A C E M E N T   A N A L Y S I S


                                                                                          

          FIXED TIME INCREMENTS
          TIME INCREMENT IS                                    1.440E+03
          TIME PERIOD IS                                       7.200E+03

          CREEP AND SWELLING EFFECTS ARE OMITTED IN THIS STEP
          THE RATE DEPENDENCY WILL BE CONSIDERED IN THIS STEP

          CREEP AND SWELLING EFFECTS WILL BE IGNORED.

 CONVERGENCE TOLERANCE PARAMETERS FOR FORCE    
     CRITERION FOR RESIDUAL FORCE     FOR A NONLINEAR PROBLEM          5.000E-03
     CRITERION FOR DISP.    CORRECTION IN A NONLINEAR PROBLEM          1.000E-02
     INITIAL VALUE OF TIME AVERAGE FORCE                               1.000E-02
     AVERAGE FORCE     IS TIME AVERAGE FORCE    
     ALTERNATE CRIT. FOR RESIDUAL FORCE     FOR A NONLINEAR PROBLEM    2.000E-02
     CRITERION FOR ZERO FORCE     RELATIVE TO TIME AVRG. FORCE         1.000E-05
     CRITERION FOR RESIDUAL FORCE     WHEN THERE IS ZERO FLUX          1.000E-05
     CRITERION FOR DISP.    CORRECTION WHEN THERE IS ZERO FLUX         1.000E-03
     CRITERION FOR RESIDUAL FORCE     FOR A LINEAR INCREMENT           1.000E-08
     FIELD CONVERSION RATIO                                             1.00    
     CRITERION FOR ZERO FORCE     REL. TO TIME AVRG. MAX. FORCE        1.000E-05
     CRITERION FOR ZERO DISP.    RELATIVE TO CHARACTERISTIC LENGTH     1.000E-08

 CONVERGENCE TOLERANCE PARAMETERS FOR HEAT FLUX
     CRITERION FOR RESIDUAL HEAT FLUX FOR A NONLINEAR PROBLEM          5.000E-03
     CRITERION FOR TEMP.    CORRECTION IN A NONLINEAR PROBLEM          1.000E-02
     INITIAL VALUE OF TIME AVERAGE HEAT FLUX                           1.000E-02
     AVERAGE HEAT FLUX IS TIME AVERAGE HEAT FLUX
     ALTERNATE CRIT. FOR RESIDUAL HEAT FLUX FOR A NONLINEAR PROBLEM    2.000E-02
     CRITERION FOR ZERO HEAT FLUX RELATIVE TO TIME AVRG. HEAT FLUX     1.000E-05
     CRITERION FOR RESIDUAL HEAT FLUX WHEN THERE IS ZERO FLUX          1.000E-05
     CRITERION FOR TEMP.    CORRECTION WHEN THERE IS ZERO FLUX         1.000E-03
     CRITERION FOR RESIDUAL HEAT FLUX FOR A LINEAR INCREMENT           1.000E-08
     FIELD CONVERSION RATIO                                             1.00    
     CRITERION FOR ZERO HEAT FLUX REL. TO TIME AVRG. MAX. HEAT FLUX    1.000E-05

     VOLUMETRIC STRAIN COMPATIBILITY TOLERANCE FOR HYBRID SOLIDS       1.000E-05
     AXIAL STRAIN COMPATIBILITY TOLERANCE FOR HYBRID BEAMS             1.000E-05
     TRANS. SHEAR STRAIN COMPATIBILITY TOLERANCE FOR HYBRID BEAMS      1.000E-05
     SOFT CONTACT CONSTRAINT COMPATIBILITY TOLERANCE FOR P>P0          5.000E-03
     SOFT CONTACT CONSTRAINT COMPATIBILITY TOLERANCE FOR P=0.0         0.100    
     CONTACT FORCE ERROR TOLERANCE FOR CONVERT SDI=YES                 1.00    
     DISPLACEMENT COMPATIBILITY TOLERANCE FOR DCOUP ELEMENTS           1.000E-05
     ROTATION COMPATIBILITY TOLERANCE FOR DCOUP ELEMENTS               1.000E-05

 EQUILIBRIUM WILL BE CHECKED FOR SEVERE DISCONTINUITY ITERATIONS

 ITERATION CONTROL PARAMETERS:
     FIRST EQUILIBRIUM ITERATION FOR CONSECUTIVE DIVERGENCE CHECK              4
     EQUILIBRIUM ITERATION AFTER WHICH ALTERNATE RESIDUAL IS USED              9
     MAXIMUM EQUILIBRIUM ITERATIONS ALLOWED                                   16
     MAXIMUM ITERATIONS FOR SEVERE DISCONTINUITIES                            12
     GLOBAL STABILIZATION CONTROL IS NOT USED

          PRINT OF INCREMENT NUMBER, TIME, ETC., EVERY    1  INCREMENTS

     THE MAXIMUM NUMBER OF INCREMENTS IN THIS STEP IS                 1000000

          LARGE DISPLACEMENT THEORY WILL BE USED

          UNSYMMETRIC MATRIX STORAGE AND SOLUTION WILL BE USED

     LINEAR EXTRAPOLATION WILL BE USED

     CHARACTERISTIC ELEMENT LENGTH     2.133E-04

     DETAILS REGARDING ACTUAL SOLUTION WAVEFRONT REQUESTED

     DETAILED OUTPUT OF DIAGNOSTICS TO DATABASE REQUESTED

     PRINT OF INCREMENT NUMBER, TIME, ETC., TO THE MESSAGE FILE EVERY     1  INCREMENTS

     ELEMENT OPERATIONS WILL BE CARRIED OUT IN PARALLEL USING   6 THREADS ON 1 DOMAIN

     PARALLEL CONTACT TRACKING ENABLED


     COLLECTING MODEL CONSTRAINT INFORMATION FOR OVERCONSTRAINT CHECKS

     COLLECTING STEP CONSTRAINT INFORMATION FOR OVERCONSTRAINT CHECKS


  INCREMENT     1 STARTS. ATTEMPT NUMBER  1, TIME INCREMENT  1.440E+03
 
     INITIAL ELEMENT LOAD BALANCE
            DOMAIN    1     THREAD    NUMBER OF ELEMENTS
                              1            5728
                              2            5640
                              3            5488
                              4            5288
                              5            5920
                              6            5673
 
	UNSYMMETRIC NEW DIRECT SPARSE SOLVER RUNNING ON
 	1 HOST x 1 MPI RANK PER HOST x 6 THREADS PER RANK
        NUMBER OF EQUATIONS:  168300
        NUMBER OF RHS:        1
        NUMBER OF FLOPS:      2.669e+11
        SOLVER ELAPSED TIME:  5.1s

               CONVERGENCE CHECKS FOR EQUILIBRIUM ITERATION     1


 AVERAGE FORCE                       0.00       TIME AVG. FORCE       1.000E-02
 ALL FORCE     RESIDUALS ARE ZERO
 ALL DISP.    INCREMENTS ARE ZERO
 ALL CORRECTION TO DISP.    ARE ZERO
          THERE IS ZERO FORCE     EVERYWHERE

 AVERAGE HEAT FLUX                  8.152E-14   TIME AVG. HEAT FLUX   1.000E-02
 LARGEST RESIDUAL HEAT FLUX         1.334E-15   AT NODE      40297   DOF 11
   INSTANCE: NDBR6                                                                           
 LARGEST INCREMENT OF TEMP.          8.72       AT NODE          1   DOF 11
   INSTANCE: NDBR6                                                                           
 LARGEST CORRECTION TO TEMP.         8.72       AT NODE          1   DOF 11
   INSTANCE: NDBR6                                                                           
          THERE IS ZERO HEAT FLUX EVERYWHERE
 

 ***WARNING: THERE IS ZERO HEAT FLUX EVERYWHERE IN THE MODEL BASED ON THE 
             DEFAULT CRITERION. PLEASE CHECK THE VALUE OF THE AVERAGE HEAT FLUX 
             DURING THE CURRENT ITERATION TO VERIFY THAT THE HEAT FLUX IS SMALL 
             ENOUGH TO BE TREATED AS ZERO. IF NOT, PLEASE USE THE SOLUTION 
             CONTROLS TO RESET THE CRITERION FOR ZERO HEAT FLUX.

 ITERATION SUMMARY FOR THE INCREMENT:   1 TOTAL ITERATIONS, OF WHICH
   0 ARE SEVERE DISCONTINUITY ITERATIONS AND  1 ARE EQUILIBRIUM ITERATIONS.

 TIME INCREMENT COMPLETED  1.440E+03,  FRACTION OF STEP COMPLETED  0.200    
 STEP TIME COMPLETED       1.440E+03,  TOTAL TIME COMPLETED        1.440E+03


  INCREMENT     2 STARTS. ATTEMPT NUMBER  1, TIME INCREMENT  1.440E+03
 
	UNSYMMETRIC NEW DIRECT SPARSE SOLVER RUNNING ON
 	1 HOST x 1 MPI RANK PER HOST x 6 THREADS PER RANK
        NUMBER OF EQUATIONS:  168300
        NUMBER OF RHS:        1
        NUMBER OF FLOPS:      2.669e+11
        SOLVER ELAPSED TIME:  21s

               CONVERGENCE CHECKS FOR EQUILIBRIUM ITERATION     1


 AVERAGE FORCE                       0.00       TIME AVG. FORCE       1.000E-02
 ALL FORCE     RESIDUALS ARE ZERO
 ALL DISP.    INCREMENTS ARE ZERO
 ALL CORRECTION TO DISP.    ARE ZERO
          THERE IS ZERO FORCE     EVERYWHERE

 AVERAGE HEAT FLUX                  1.562E-14   TIME AVG. HEAT FLUX   1.000E-02
 LARGEST RESIDUAL HEAT FLUX        -2.069E-16   AT NODE      40349   DOF 11
   INSTANCE: NDBR6                                                                           
 LARGEST INCREMENT OF TEMP.          1.93       AT NODE      40406   DOF 11
   INSTANCE: NDBR6                                                                           
 LARGEST CORRECTION TO TEMP.        -8.72       AT NODE          1   DOF 11
   INSTANCE: NDBR6                                                                           
          THERE IS ZERO HEAT FLUX EVERYWHERE
 

 ***WARNING: THERE IS ZERO HEAT FLUX EVERYWHERE IN THE MODEL BASED ON THE 
             DEFAULT CRITERION. PLEASE CHECK THE VALUE OF THE AVERAGE HEAT FLUX 
             DURING THE CURRENT ITERATION TO VERIFY THAT THE HEAT FLUX IS SMALL 
             ENOUGH TO BE TREATED AS ZERO. IF NOT, PLEASE USE THE SOLUTION 
             CONTROLS TO RESET THE CRITERION FOR ZERO HEAT FLUX.

 ITERATION SUMMARY FOR THE INCREMENT:   1 TOTAL ITERATIONS, OF WHICH
   0 ARE SEVERE DISCONTINUITY ITERATIONS AND  1 ARE EQUILIBRIUM ITERATIONS.

 TIME INCREMENT COMPLETED  1.440E+03,  FRACTION OF STEP COMPLETED  0.400    
 STEP TIME COMPLETED       2.880E+03,  TOTAL TIME COMPLETED        2.880E+03


  INCREMENT     3 STARTS. ATTEMPT NUMBER  1, TIME INCREMENT  1.440E+03
 
	UNSYMMETRIC NEW DIRECT SPARSE SOLVER RUNNING ON
 	1 HOST x 1 MPI RANK PER HOST x 6 THREADS PER RANK
        NUMBER OF EQUATIONS:  168300
        NUMBER OF RHS:        1
        NUMBER OF FLOPS:      2.669e+11
        SOLVER ELAPSED TIME:  5.7s

               CONVERGENCE CHECKS FOR EQUILIBRIUM ITERATION     1


 AVERAGE FORCE                       0.00       TIME AVG. FORCE       1.000E-02
 ALL FORCE     RESIDUALS ARE ZERO
 ALL DISP.    INCREMENTS ARE ZERO
 ALL CORRECTION TO DISP.    ARE ZERO
          THERE IS ZERO FORCE     EVERYWHERE

 AVERAGE HEAT FLUX                  3.552E-15   TIME AVG. HEAT FLUX   1.000E-02
 LARGEST RESIDUAL HEAT FLUX        -1.048E-17   AT NODE      40349   DOF 11
   INSTANCE: NDBR6                                                                           
 LARGEST INCREMENT OF TEMP.         0.596       AT NODE      41991   DOF 11
   INSTANCE: NDBR6                                                                           
 LARGEST CORRECTION TO TEMP.        -1.40       AT NODE        881   DOF 11
   INSTANCE: NDBR6                                                                           
          THERE IS ZERO HEAT FLUX EVERYWHERE
 

 ***WARNING: THERE IS ZERO HEAT FLUX EVERYWHERE IN THE MODEL BASED ON THE 
             DEFAULT CRITERION. PLEASE CHECK THE VALUE OF THE AVERAGE HEAT FLUX 
             DURING THE CURRENT ITERATION TO VERIFY THAT THE HEAT FLUX IS SMALL 
             ENOUGH TO BE TREATED AS ZERO. IF NOT, PLEASE USE THE SOLUTION 
             CONTROLS TO RESET THE CRITERION FOR ZERO HEAT FLUX.

 ITERATION SUMMARY FOR THE INCREMENT:   1 TOTAL ITERATIONS, OF WHICH
   0 ARE SEVERE DISCONTINUITY ITERATIONS AND  1 ARE EQUILIBRIUM ITERATIONS.

 TIME INCREMENT COMPLETED  1.440E+03,  FRACTION OF STEP COMPLETED  0.600    
 STEP TIME COMPLETED       4.320E+03,  TOTAL TIME COMPLETED        4.320E+03


  INCREMENT     4 STARTS. ATTEMPT NUMBER  1, TIME INCREMENT  1.440E+03
 
	UNSYMMETRIC NEW DIRECT SPARSE SOLVER RUNNING ON
 	1 HOST x 1 MPI RANK PER HOST x 6 THREADS PER RANK
        NUMBER OF EQUATIONS:  168300
        NUMBER OF RHS:        1
        NUMBER OF FLOPS:      2.669e+11
        SOLVER ELAPSED TIME:  59s

               CONVERGENCE CHECKS FOR EQUILIBRIUM ITERATION     1


 AVERAGE FORCE                       0.00       TIME AVG. FORCE       1.000E-02
 ALL FORCE     RESIDUALS ARE ZERO
 ALL DISP.    INCREMENTS ARE ZERO
 ALL CORRECTION TO DISP.    ARE ZERO
          THERE IS ZERO FORCE     EVERYWHERE

 AVERAGE HEAT FLUX                  8.132E-16   TIME AVG. HEAT FLUX   1.000E-02
 LARGEST RESIDUAL HEAT FLUX        -9.968E-19   AT NODE      41991   DOF 11
   INSTANCE: NDBR6                                                                           
 LARGEST INCREMENT OF TEMP.         0.189       AT NODE      41991   DOF 11
   INSTANCE: NDBR6                                                                           
 LARGEST CORRECTION TO TEMP.       -0.407       AT NODE      41996   DOF 11
   INSTANCE: NDBR6                                                                           
          THERE IS ZERO HEAT FLUX EVERYWHERE
 

 ***WARNING: THERE IS ZERO HEAT FLUX EVERYWHERE IN THE MODEL BASED ON THE 
             DEFAULT CRITERION. PLEASE CHECK THE VALUE OF THE AVERAGE HEAT FLUX 
             DURING THE CURRENT ITERATION TO VERIFY THAT THE HEAT FLUX IS SMALL 
             ENOUGH TO BE TREATED AS ZERO. IF NOT, PLEASE USE THE SOLUTION 
             CONTROLS TO RESET THE CRITERION FOR ZERO HEAT FLUX.

 ITERATION SUMMARY FOR THE INCREMENT:   1 TOTAL ITERATIONS, OF WHICH
   0 ARE SEVERE DISCONTINUITY ITERATIONS AND  1 ARE EQUILIBRIUM ITERATIONS.

 TIME INCREMENT COMPLETED  1.440E+03,  FRACTION OF STEP COMPLETED  0.800    
 STEP TIME COMPLETED       5.760E+03,  TOTAL TIME COMPLETED        5.760E+03


  INCREMENT     5 STARTS. ATTEMPT NUMBER  1, TIME INCREMENT  1.440E+03
 
	UNSYMMETRIC NEW DIRECT SPARSE SOLVER RUNNING ON
 	1 HOST x 1 MPI RANK PER HOST x 6 THREADS PER RANK
        NUMBER OF EQUATIONS:  168300
        NUMBER OF RHS:        1
        NUMBER OF FLOPS:      2.669e+11
        SOLVER ELAPSED TIME:  5.5s

               CONVERGENCE CHECKS FOR EQUILIBRIUM ITERATION     1


 AVERAGE FORCE                       0.00       TIME AVG. FORCE       1.000E-02
 ALL FORCE     RESIDUALS ARE ZERO
 ALL DISP.    INCREMENTS ARE ZERO
 ALL CORRECTION TO DISP.    ARE ZERO
          THERE IS ZERO FORCE     EVERYWHERE

 AVERAGE HEAT FLUX                  1.881E-16   TIME AVG. HEAT FLUX   1.000E-02
 LARGEST RESIDUAL HEAT FLUX        -1.010E-19   AT NODE      41991   DOF 11
   INSTANCE: NDBR6                                                                           
 LARGEST INCREMENT OF TEMP.         6.101E-02   AT NODE      41991   DOF 11
   INSTANCE: NDBR6                                                                           
 LARGEST CORRECTION TO TEMP.       -0.128       AT NODE      41991   DOF 11
   INSTANCE: NDBR6                                                                           
          THERE IS ZERO HEAT FLUX EVERYWHERE
 

 ***WARNING: THERE IS ZERO HEAT FLUX EVERYWHERE IN THE MODEL BASED ON THE 
             DEFAULT CRITERION. PLEASE CHECK THE VALUE OF THE AVERAGE HEAT FLUX 
             DURING THE CURRENT ITERATION TO VERIFY THAT THE HEAT FLUX IS SMALL 
             ENOUGH TO BE TREATED AS ZERO. IF NOT, PLEASE USE THE SOLUTION 
             CONTROLS TO RESET THE CRITERION FOR ZERO HEAT FLUX.

 ITERATION SUMMARY FOR THE INCREMENT:   1 TOTAL ITERATIONS, OF WHICH
   0 ARE SEVERE DISCONTINUITY ITERATIONS AND  1 ARE EQUILIBRIUM ITERATIONS.

 TIME INCREMENT COMPLETED  1.440E+03,  FRACTION OF STEP COMPLETED   1.00    
 STEP TIME COMPLETED       7.200E+03,  TOTAL TIME COMPLETED        7.200E+03
1

   Abaqus 2023.HF4                                  Date 28-Oct-2024   Time 22:11:00
   For use by AALTO UNIVERSITY under license from Dassault Systemes or its subsidiary.

                                                                                 
                                                                                 
 STEP    2     INCREMENT     1     STEP TIME    0.00    


                        S T E P       2     C O U P L E D - T E M P E R A T U R E - D I S P L A C E M E N T   A N A L Y S I S


                                                                                          

     AUTOMATIC TIME CONTROL WITH -
          A SUGGESTED INITIAL TIME INCREMENT OF                 5.55    
          AND A TOTAL TIME PERIOD OF                            555.    
          THE MINIMUM TIME INCREMENT ALLOWED IS                1.000E-07
          THE MAXIMUM TIME INCREMENT ALLOWED IS                 5.55    

          CREEP AND SWELLING EFFECTS ARE OMITTED IN THIS STEP

     THE SIZE OF THE TIME INCREMENT IS CONTROLLED BY -
          THE TEMPERATURE CHANGE PER INCREMENT NOT EXCEEDING           1.000E+03
          THE RATE DEPENDENCY WILL BE CONSIDERED IN THIS STEP

          CREEP AND SWELLING EFFECTS WILL BE IGNORED.

 CONVERGENCE TOLERANCE PARAMETERS FOR FORCE    
     CRITERION FOR RESIDUAL FORCE     FOR A NONLINEAR PROBLEM          5.000E-03
     CRITERION FOR DISP.    CORRECTION IN A NONLINEAR PROBLEM          1.000E-02
     INIT. VALUE OF TIME AVG. FORCE     IS TIME AVG. FORCE     IN PREVIOUS STEP
     AVERAGE FORCE     IS TIME AVERAGE FORCE    
     ALTERNATE CRIT. FOR RESIDUAL FORCE     FOR A NONLINEAR PROBLEM    2.000E-02
     CRITERION FOR ZERO FORCE     RELATIVE TO TIME AVRG. FORCE         1.000E-05
     CRITERION FOR RESIDUAL FORCE     WHEN THERE IS ZERO FLUX          1.000E-05
     CRITERION FOR DISP.    CORRECTION WHEN THERE IS ZERO FLUX         1.000E-03
     CRITERION FOR RESIDUAL FORCE     FOR A LINEAR INCREMENT           1.000E-08
     FIELD CONVERSION RATIO                                             1.00    
     CRITERION FOR ZERO FORCE     REL. TO TIME AVRG. MAX. FORCE        1.000E-05
     CRITERION FOR ZERO DISP.    RELATIVE TO CHARACTERISTIC LENGTH     1.000E-08

 CONVERGENCE TOLERANCE PARAMETERS FOR HEAT FLUX
     CRITERION FOR RESIDUAL HEAT FLUX FOR A NONLINEAR PROBLEM          5.000E-03
     CRITERION FOR TEMP.    CORRECTION IN A NONLINEAR PROBLEM          1.000E-02
     INIT. VALUE OF TIME AVG. HEAT FLUX IS TIME AVG. HEAT FLUX IN PREVIOUS STEP
     AVERAGE HEAT FLUX IS TIME AVERAGE HEAT FLUX
     ALTERNATE CRIT. FOR RESIDUAL HEAT FLUX FOR A NONLINEAR PROBLEM    2.000E-02
     CRITERION FOR ZERO HEAT FLUX RELATIVE TO TIME AVRG. HEAT FLUX     1.000E-05
     CRITERION FOR RESIDUAL HEAT FLUX WHEN THERE IS ZERO FLUX          1.000E-05
     CRITERION FOR TEMP.    CORRECTION WHEN THERE IS ZERO FLUX         1.000E-03
     CRITERION FOR RESIDUAL HEAT FLUX FOR A LINEAR INCREMENT           1.000E-08
     FIELD CONVERSION RATIO                                             1.00    
     CRITERION FOR ZERO HEAT FLUX REL. TO TIME AVRG. MAX. HEAT FLUX    1.000E-05

     VOLUMETRIC STRAIN COMPATIBILITY TOLERANCE FOR HYBRID SOLIDS       1.000E-05
     AXIAL STRAIN COMPATIBILITY TOLERANCE FOR HYBRID BEAMS             1.000E-05
     TRANS. SHEAR STRAIN COMPATIBILITY TOLERANCE FOR HYBRID BEAMS      1.000E-05
     SOFT CONTACT CONSTRAINT COMPATIBILITY TOLERANCE FOR P>P0          5.000E-03
     SOFT CONTACT CONSTRAINT COMPATIBILITY TOLERANCE FOR P=0.0         0.100    
     CONTACT FORCE ERROR TOLERANCE FOR CONVERT SDI=YES                 1.00    
     DISPLACEMENT COMPATIBILITY TOLERANCE FOR DCOUP ELEMENTS           1.000E-05
     ROTATION COMPATIBILITY TOLERANCE FOR DCOUP ELEMENTS               1.000E-05

 EQUILIBRIUM WILL BE CHECKED FOR SEVERE DISCONTINUITY ITERATIONS

 TIME INCREMENTATION CONTROL PARAMETERS:
     FIRST EQUILIBRIUM ITERATION FOR CONSECUTIVE DIVERGENCE CHECK              4
     EQUILIBRIUM ITERATION AT WHICH LOG. CONVERGENCE RATE CHECK BEGINS         8
     EQUILIBRIUM ITERATION AFTER WHICH ALTERNATE RESIDUAL IS USED              9
     MAXIMUM EQUILIBRIUM ITERATIONS ALLOWED                                   16
     EQUILIBRIUM ITERATION COUNT FOR CUT-BACK IN NEXT INCREMENT               10
     MAXIMUM EQUILIB. ITERS IN TWO INCREMENTS FOR TIME INCREMENT INCREASE      4
     MAXIMUM ITERATIONS FOR SEVERE DISCONTINUITIES                            50
     MAXIMUM ATTEMPTS ALLOWED IN AN INCREMENT                                  5
     MAXIMUM DISCON. ITERS IN TWO INCREMENTS FOR TIME INCREMENT INCREASE      50
     MAXIMUM CONTACT AUGMENTATIONS FOR *SURFACE BEHAVIOR,AUGMENTED LAGRANGE   50
     CONSECUTIVE INCS MEETING TIME INTEG. TOL. FOR TIME INC. INCREASE          3
     CUT-BACK FACTOR AFTER DIVERGENCE                                 0.2500    
     CUT-BACK FACTOR FOR TOO SLOW CONVERGENCE                         0.5000    
     CUT-BACK FACTOR AFTER TOO MANY EQUILIBRIUM ITERATIONS            0.7500    
     CUT-BACK FACTOR AFTER TOO MANY SEVERE DISCONTINUITY ITERATIONS   0.2500    
     CUT-BACK FACTOR AFTER PROBLEMS IN ELEMENT ASSEMBLY               0.2500    
     INCREASE FACTOR AFTER TWO INCREMENTS THAT CONVERGE QUICKLY        1.500    
     MAX. TIME INCREMENT INCREASE FACTOR ALLOWED                       1.500    
     MAX. TIME INCREMENT INCREASE FACTOR ALLOWED (DYNAMICS)            1.250    
     MAX. TIME INCREMENT INCREASE FACTOR ALLOWED (DIFFUSION)           2.000    
     MINIMUM TIME INCREMENT RATIO FOR EXTRAPOLATION TO OCCUR          0.1000    
     CUT-BACK FACTOR WHEN TIME INTEGRATION ACCURACY TOL. EXCEEDED     0.8500    
     MAX. RATIO OF TIME INTEG. MEASURE TO TOL. FOR TIME INC. INCREASE 0.7500    
     INCREASE FACTOR FOR TIME INCREMENT WHEN POSSIBLE                 0.8000    
     MIN. TIME INC. INCREASE FACTOR IN LINEAR TRANSIENT PROBLEMS      0.9500    
     MAX. RATIO OF TIME INCREMENT TO STABILITY LIMIT                   1.000    
     FRACTION OF STABILITY LIMIT FOR NEW TIME INCREMENT               0.9500    
     TIME INCREMENT INCREASE FACTOR BEFORE A TIME POINT                1.000    
     GLOBAL STABILIZATION CONTROL IS NOT USED

          PRINT OF INCREMENT NUMBER, TIME, ETC., EVERY    1  INCREMENTS

     THE MAXIMUM NUMBER OF INCREMENTS IN THIS STEP IS                 1000000

          LARGE DISPLACEMENT THEORY WILL BE USED

          UNSYMMETRIC MATRIX STORAGE AND SOLUTION WILL BE USED

     LINEAR EXTRAPOLATION WILL BE USED

     CHARACTERISTIC ELEMENT LENGTH     2.133E-04

     DETAILS REGARDING ACTUAL SOLUTION WAVEFRONT REQUESTED

     DETAILED OUTPUT OF DIAGNOSTICS TO DATABASE REQUESTED

     PRINT OF INCREMENT NUMBER, TIME, ETC., TO THE MESSAGE FILE EVERY     1  INCREMENTS

     ELEMENT OPERATIONS WILL BE CARRIED OUT IN PARALLEL USING   6 THREADS ON 1 DOMAIN

     COLLECTING STEP CONSTRAINT INFORMATION FOR OVERCONSTRAINT CHECKS


  INCREMENT     1 STARTS. ATTEMPT NUMBER  1, TIME INCREMENT   5.55    
 
     INITIAL ELEMENT LOAD BALANCE
            DOMAIN    1     THREAD    NUMBER OF ELEMENTS
                              1            5640
                              2            5736
                              3            5448
                              4            5552
                              5            5624
                              6            5737
 
	UNSYMMETRIC NEW DIRECT SPARSE SOLVER RUNNING ON
 	1 HOST x 1 MPI RANK PER HOST x 6 THREADS PER RANK
        NUMBER OF EQUATIONS:  168300
        NUMBER OF RHS:        1
        NUMBER OF FLOPS:      2.669e+11
        SOLVER ELAPSED TIME:  1.5s

 ***WARNING: SOLVER PROBLEM.  ZERO PIVOT WHEN PROCESSING NODE 13805 INSTANCE 
             NDBR6 D.O.F. 11
  Typically a zero pivot is associated with an overconstraint in the model. 
 However, Abaqus was not able to identify any chains of constraints that might 
 lead to an overconstraint at this node. This suggests that the model might be 
 in fact insufficiently constrained in this particular degree of freedom. 
 Please check the constraints used in this model. 


 ***WARNING: SOLVER PROBLEM.  ZERO PIVOT WHEN PROCESSING NODE 13806 INSTANCE 
             NDBR6 D.O.F. 11
  Typically a zero pivot is associated with an overconstraint in the model. 
 However, Abaqus was not able to identify any chains of constraints that might 
 lead to an overconstraint at this node. This suggests that the model might be 
 in fact insufficiently constrained in this particular degree of freedom. 
 Please check the constraints used in this model. 


 ***WARNING: SOLVER PROBLEM.  ZERO PIVOT WHEN PROCESSING NODE 14018 INSTANCE 
             NDBR6 D.O.F. 11
  Typically a zero pivot is associated with an overconstraint in the model. 
 However, Abaqus was not able to identify any chains of constraints that might 
 lead to an overconstraint at this node. This suggests that the model might be 
 in fact insufficiently constrained in this particular degree of freedom. 
 Please check the constraints used in this model. 


 ***WARNING: SOLVER PROBLEM.  ZERO PIVOT WHEN PROCESSING NODE 13947 INSTANCE 
             NDBR6 D.O.F. 11
  Typically a zero pivot is associated with an overconstraint in the model. 
 However, Abaqus was not able to identify any chains of constraints that might 
 lead to an overconstraint at this node. This suggests that the model might be 
 in fact insufficiently constrained in this particular degree of freedom. 
 Please check the constraints used in this model. 


 ***WARNING: SOLVER PROBLEM.  ZERO PIVOT WHEN PROCESSING NODE 13876 INSTANCE 
             NDBR6 D.O.F. 11
  Typically a zero pivot is associated with an overconstraint in the model. 
 However, Abaqus was not able to identify any chains of constraints that might 
 lead to an overconstraint at this node. This suggests that the model might be 
 in fact insufficiently constrained in this particular degree of freedom. 
 Please check the constraints used in this model. 


 ***WARNING: SOLVER PROBLEM.  ZERO PIVOT WHEN PROCESSING NODE 13809 INSTANCE 
             NDBR6 D.O.F. 11
  Typically a zero pivot is associated with an overconstraint in the model. 
 However, Abaqus was not able to identify any chains of constraints that might 
 lead to an overconstraint at this node. This suggests that the model might be 
 in fact insufficiently constrained in this particular degree of freedom. 
 Please check the constraints used in this model. 


 ***WARNING: SOLVER PROBLEM.  ZERO PIVOT WHEN PROCESSING NODE 13808 INSTANCE 
             NDBR6 D.O.F. 11
  Typically a zero pivot is associated with an overconstraint in the model. 
 However, Abaqus was not able to identify any chains of constraints that might 
 lead to an overconstraint at this node. This suggests that the model might be 
 in fact insufficiently constrained in this particular degree of freedom. 
 Please check the constraints used in this model. 


 ***WARNING: SOLVER PROBLEM.  ZERO PIVOT WHEN PROCESSING NODE 14022 INSTANCE 
             NDBR6 D.O.F. 11
  Typically a zero pivot is associated with an overconstraint in the model. 
 However, Abaqus was not able to identify any chains of constraints that might 
 lead to an overconstraint at this node. This suggests that the model might be 
 in fact insufficiently constrained in this particular degree of freedom. 
 Please check the constraints used in this model. 


 ***WARNING: SOLVER PROBLEM.  ZERO PIVOT WHEN PROCESSING NODE 13951 INSTANCE 
             NDBR6 D.O.F. 11
  Typically a zero pivot is associated with an overconstraint in the model. 
 However, Abaqus was not able to identify any chains of constraints that might 
 lead to an overconstraint at this node. This suggests that the model might be 
 in fact insufficiently constrained in this particular degree of freedom. 
 Please check the constraints used in this model. 


 ***WARNING: SOLVER PROBLEM.  ZERO PIVOT WHEN PROCESSING NODE 13880 INSTANCE 
             NDBR6 D.O.F. 11
  Typically a zero pivot is associated with an overconstraint in the model. 
 However, Abaqus was not able to identify any chains of constraints that might 
 lead to an overconstraint at this node. This suggests that the model might be 
 in fact insufficiently constrained in this particular degree of freedom. 
 Please check the constraints used in this model. 


 ***WARNING: SOLVER PROBLEM.  ZERO PIVOT WHEN PROCESSING NODE 13807 INSTANCE 
             NDBR6 D.O.F. 11
  Typically a zero pivot is associated with an overconstraint in the model. 
 However, Abaqus was not able to identify any chains of constraints that might 
 lead to an overconstraint at this node. This suggests that the model might be 
 in fact insufficiently constrained in this particular degree of freedom. 
 Please check the constraints used in this model. 


 ***WARNING: SOLVER PROBLEM.  ZERO PIVOT WHEN PROCESSING NODE 16292 INSTANCE 
             NDBR6 D.O.F. 11
  Typically a zero pivot is associated with an overconstraint in the model. 
 However, Abaqus was not able to identify any chains of constraints that might 
 lead to an overconstraint at this node. This suggests that the model might be 
 in fact insufficiently constrained in this particular degree of freedom. 
 Please check the constraints used in this model. 


 ***WARNING: SOLVER PROBLEM.  ZERO PIVOT WHEN PROCESSING NODE 16221 INSTANCE 
             NDBR6 D.O.F. 11
  Typically a zero pivot is associated with an overconstraint in the model. 
 However, Abaqus was not able to identify any chains of constraints that might 
 lead to an overconstraint at this node. This suggests that the model might be 
 in fact insufficiently constrained in this particular degree of freedom. 
 Please check the constraints used in this model. 


 ***WARNING: SOLVER PROBLEM.  ZERO PIVOT WHEN PROCESSING NODE 14019 INSTANCE 
             NDBR6 D.O.F. 11
  Typically a zero pivot is associated with an overconstraint in the model. 
 However, Abaqus was not able to identify any chains of constraints that might 
 lead to an overconstraint at this node. This suggests that the model might be 
 in fact insufficiently constrained in this particular degree of freedom. 
 Please check the constraints used in this model. 


 ***WARNING: SOLVER PROBLEM.  ZERO PIVOT WHEN PROCESSING NODE 13877 INSTANCE 
             NDBR6 D.O.F. 11
  Typically a zero pivot is associated with an overconstraint in the model. 
 However, Abaqus was not able to identify any chains of constraints that might 
 lead to an overconstraint at this node. This suggests that the model might be 
 in fact insufficiently constrained in this particular degree of freedom. 
 Please check the constraints used in this model. 


 ***WARNING: SOLVER PROBLEM.  ZERO PIVOT WHEN PROCESSING NODE 13878 INSTANCE 
             NDBR6 D.O.F. 11
  Typically a zero pivot is associated with an overconstraint in the model. 
 However, Abaqus was not able to identify any chains of constraints that might 
 lead to an overconstraint at this node. This suggests that the model might be 
 in fact insufficiently constrained in this particular degree of freedom. 
 Please check the constraints used in this model. 


 ***WARNING: SOLVER PROBLEM.  ZERO PIVOT WHEN PROCESSING NODE 13879 INSTANCE 
             NDBR6 D.O.F. 11
  Typically a zero pivot is associated with an overconstraint in the model. 
 However, Abaqus was not able to identify any chains of constraints that might 
 lead to an overconstraint at this node. This suggests that the model might be 
 in fact insufficiently constrained in this particular degree of freedom. 
 Please check the constraints used in this model. 


 ***WARNING: SOLVER PROBLEM.  ZERO PIVOT WHEN PROCESSING NODE 13948 INSTANCE 
             NDBR6 D.O.F. 11
  Typically a zero pivot is associated with an overconstraint in the model. 
 However, Abaqus was not able to identify any chains of constraints that might 
 lead to an overconstraint at this node. This suggests that the model might be 
 in fact insufficiently constrained in this particular degree of freedom. 
 Please check the constraints used in this model. 


 ***WARNING: SOLVER PROBLEM.  ZERO PIVOT WHEN PROCESSING NODE 13949 INSTANCE 
             NDBR6 D.O.F. 11
  Typically a zero pivot is associated with an overconstraint in the model. 
 However, Abaqus was not able to identify any chains of constraints that might 
 lead to an overconstraint at this node. This suggests that the model might be 
 in fact insufficiently constrained in this particular degree of freedom. 
 Please check the constraints used in this model. 


 ***WARNING: SOLVER PROBLEM.  ZERO PIVOT WHEN PROCESSING NODE 13950 INSTANCE 
             NDBR6 D.O.F. 11
  Typically a zero pivot is associated with an overconstraint in the model. 
 However, Abaqus was not able to identify any chains of constraints that might 
 lead to an overconstraint at this node. This suggests that the model might be 
 in fact insufficiently constrained in this particular degree of freedom. 
 Please check the constraints used in this model. 


 ***WARNING: SOLVER PROBLEM.  ZERO PIVOT WHEN PROCESSING NODE 14020 INSTANCE 
             NDBR6 D.O.F. 11
  Typically a zero pivot is associated with an overconstraint in the model. 
 However, Abaqus was not able to identify any chains of constraints that might 
 lead to an overconstraint at this node. This suggests that the model might be 
 in fact insufficiently constrained in this particular degree of freedom. 
 Please check the constraints used in this model. 


 ***WARNING: SOLVER PROBLEM.  ZERO PIVOT WHEN PROCESSING NODE 14021 INSTANCE 
             NDBR6 D.O.F. 11
  Typically a zero pivot is associated with an overconstraint in the model. 
 However, Abaqus was not able to identify any chains of constraints that might 
 lead to an overconstraint at this node. This suggests that the model might be 
 in fact insufficiently constrained in this particular degree of freedom. 
 Please check the constraints used in this model. 


 ***WARNING: SOLVER PROBLEM.  ZERO PIVOT WHEN PROCESSING NODE 18353 INSTANCE 
             NDBR6 D.O.F. 11
  Typically a zero pivot is associated with an overconstraint in the model. 
 However, Abaqus was not able to identify any chains of constraints that might 
 lead to an overconstraint at this node. This suggests that the model might be 
 in fact insufficiently constrained in this particular degree of freedom. 
 Please check the constraints used in this model. 


 ***WARNING: SOLVER PROBLEM.  ZERO PIVOT WHEN PROCESSING NODE 18352 INSTANCE 
             NDBR6 D.O.F. 11
  Typically a zero pivot is associated with an overconstraint in the model. 
 However, Abaqus was not able to identify any chains of constraints that might 
 lead to an overconstraint at this node. This suggests that the model might be 
 in fact insufficiently constrained in this particular degree of freedom. 
 Please check the constraints used in this model. 


 ***WARNING: SOLVER PROBLEM.  ZERO PIVOT WHEN PROCESSING NODE 18566 INSTANCE 
             NDBR6 D.O.F. 11
  Typically a zero pivot is associated with an overconstraint in the model. 
 However, Abaqus was not able to identify any chains of constraints that might 
 lead to an overconstraint at this node. This suggests that the model might be 
 in fact insufficiently constrained in this particular degree of freedom. 
 Please check the constraints used in this model. 


 ***WARNING: SOLVER PROBLEM.  ZERO PIVOT WHEN PROCESSING NODE 18495 INSTANCE 
             NDBR6 D.O.F. 11
  Typically a zero pivot is associated with an overconstraint in the model. 
 However, Abaqus was not able to identify any chains of constraints that might 
 lead to an overconstraint at this node. This suggests that the model might be 
 in fact insufficiently constrained in this particular degree of freedom. 
 Please check the constraints used in this model. 


 ***WARNING: SOLVER PROBLEM.  ZERO PIVOT WHEN PROCESSING NODE 18424 INSTANCE 
             NDBR6 D.O.F. 11
  Typically a zero pivot is associated with an overconstraint in the model. 
 However, Abaqus was not able to identify any chains of constraints that might 
 lead to an overconstraint at this node. This suggests that the model might be 
 in fact insufficiently constrained in this particular degree of freedom. 
 Please check the constraints used in this model. 


 ***WARNING: SOLVER PROBLEM.  ZERO PIVOT WHEN PROCESSING NODE 16294 INSTANCE 
             NDBR6 D.O.F. 11
  Typically a zero pivot is associated with an overconstraint in the model. 
 However, Abaqus was not able to identify any chains of constraints that might 
 lead to an overconstraint at this node. This suggests that the model might be 
 in fact insufficiently constrained in this particular degree of freedom. 
 Please check the constraints used in this model. 


 ***WARNING: SOLVER PROBLEM.  ZERO PIVOT WHEN PROCESSING NODE 16080 INSTANCE 
             NDBR6 D.O.F. 11
  Typically a zero pivot is associated with an overconstraint in the model. 
 However, Abaqus was not able to identify any chains of constraints that might 
 lead to an overconstraint at this node. This suggests that the model might be 
 in fact insufficiently constrained in this particular degree of freedom. 
 Please check the constraints used in this model. 


 ***WARNING: SOLVER PROBLEM.  ZERO PIVOT WHEN PROCESSING NODE 16081 INSTANCE 
             NDBR6 D.O.F. 11
  Typically a zero pivot is associated with an overconstraint in the model. 
 However, Abaqus was not able to identify any chains of constraints that might 
 lead to an overconstraint at this node. This suggests that the model might be 
 in fact insufficiently constrained in this particular degree of freedom. 
 Please check the constraints used in this model. 


 ***WARNING: SOLVER PROBLEM.  ZERO PIVOT WHEN PROCESSING NODE 16151 INSTANCE 
             NDBR6 D.O.F. 11
  Typically a zero pivot is associated with an overconstraint in the model. 
 However, Abaqus was not able to identify any chains of constraints that might 
 lead to an overconstraint at this node. This suggests that the model might be 
 in fact insufficiently constrained in this particular degree of freedom. 
 Please check the constraints used in this model. 


 ***WARNING: SOLVER PROBLEM.  ZERO PIVOT WHEN PROCESSING NODE 16152 INSTANCE 
             NDBR6 D.O.F. 11
  Typically a zero pivot is associated with an overconstraint in the model. 
 However, Abaqus was not able to identify any chains of constraints that might 
 lead to an overconstraint at this node. This suggests that the model might be 
 in fact insufficiently constrained in this particular degree of freedom. 
 Please check the constraints used in this model. 


 ***WARNING: SOLVER PROBLEM.  ZERO PIVOT WHEN PROCESSING NODE 16222 INSTANCE 
             NDBR6 D.O.F. 11
  Typically a zero pivot is associated with an overconstraint in the model. 
 However, Abaqus was not able to identify any chains of constraints that might 
 lead to an overconstraint at this node. This suggests that the model might be 
 in fact insufficiently constrained in this particular degree of freedom. 
 Please check the constraints used in this model. 


 ***WARNING: SOLVER PROBLEM.  ZERO PIVOT WHEN PROCESSING NODE 16223 INSTANCE 
             NDBR6 D.O.F. 11
  Typically a zero pivot is associated with an overconstraint in the model. 
 However, Abaqus was not able to identify any chains of constraints that might 
 lead to an overconstraint at this node. This suggests that the model might be 
 in fact insufficiently constrained in this particular degree of freedom. 
 Please check the constraints used in this model. 


 ***WARNING: SOLVER PROBLEM.  ZERO PIVOT WHEN PROCESSING NODE 16293 INSTANCE 
             NDBR6 D.O.F. 11
  Typically a zero pivot is associated with an overconstraint in the model. 
 However, Abaqus was not able to identify any chains of constraints that might 
 lead to an overconstraint at this node. This suggests that the model might be 
 in fact insufficiently constrained in this particular degree of freedom. 
 Please check the constraints used in this model. 


 ***WARNING: SOLVER PROBLEM.  ZERO PIVOT WHEN PROCESSING NODE 10269 INSTANCE 
             NDBR6 D.O.F. 11
  Typically a zero pivot is associated with an overconstraint in the model. 
 However, Abaqus was not able to identify any chains of constraints that might 
 lead to an overconstraint at this node. This suggests that the model might be 
 in fact insufficiently constrained in this particular degree of freedom. 
 Please check the constraints used in this model. 


 ***WARNING: SOLVER PROBLEM.  ZERO PIVOT WHEN PROCESSING NODE 10270 INSTANCE 
             NDBR6 D.O.F. 11
  Typically a zero pivot is associated with an overconstraint in the model. 
 However, Abaqus was not able to identify any chains of constraints that might 
 lead to an overconstraint at this node. This suggests that the model might be 
 in fact insufficiently constrained in this particular degree of freedom. 
 Please check the constraints used in this model. 


 ***WARNING: SOLVER PROBLEM.  ZERO PIVOT WHEN PROCESSING NODE 10482 INSTANCE 
             NDBR6 D.O.F. 11
  Typically a zero pivot is associated with an overconstraint in the model. 
 However, Abaqus was not able to identify any chains of constraints that might 
 lead to an overconstraint at this node. This suggests that the model might be 
 in fact insufficiently constrained in this particular degree of freedom. 
 Please check the constraints used in this model. 


 ***WARNING: SOLVER PROBLEM.  ZERO PIVOT WHEN PROCESSING NODE 10411 INSTANCE 
             NDBR6 D.O.F. 11
  Typically a zero pivot is associated with an overconstraint in the model. 
 However, Abaqus was not able to identify any chains of constraints that might 
 lead to an overconstraint at this node. This suggests that the model might be 
 in fact insufficiently constrained in this particular degree of freedom. 
 Please check the constraints used in this model. 


 ***WARNING: SOLVER PROBLEM.  ZERO PIVOT WHEN PROCESSING NODE 10340 INSTANCE 
             NDBR6 D.O.F. 11
  Typically a zero pivot is associated with an overconstraint in the model. 
 However, Abaqus was not able to identify any chains of constraints that might 
 lead to an overconstraint at this node. This suggests that the model might be 
 in fact insufficiently constrained in this particular degree of freedom. 
 Please check the constraints used in this model. 


 ***WARNING: SOLVER PROBLEM.  ZERO PIVOT WHEN PROCESSING NODE 10341 INSTANCE 
             NDBR6 D.O.F. 11
  Typically a zero pivot is associated with an overconstraint in the model. 
 However, Abaqus was not able to identify any chains of constraints that might 
 lead to an overconstraint at this node. This suggests that the model might be 
 in fact insufficiently constrained in this particular degree of freedom. 
 Please check the constraints used in this model. 


 ***WARNING: SOLVER PROBLEM.  ZERO PIVOT WHEN PROCESSING NODE 10273 INSTANCE 
             NDBR6 D.O.F. 11
  Typically a zero pivot is associated with an overconstraint in the model. 
 However, Abaqus was not able to identify any chains of constraints that might 
 lead to an overconstraint at this node. This suggests that the model might be 
 in fact insufficiently constrained in this particular degree of freedom. 
 Please check the constraints used in this model. 


 ***WARNING: SOLVER PROBLEM.  ZERO PIVOT WHEN PROCESSING NODE 10272 INSTANCE 
             NDBR6 D.O.F. 11
  Typically a zero pivot is associated with an overconstraint in the model. 
 However, Abaqus was not able to identify any chains of constraints that might 
 lead to an overconstraint at this node. This suggests that the model might be 
 in fact insufficiently constrained in this particular degree of freedom. 
 Please check the constraints used in this model. 


 ***WARNING: SOLVER PROBLEM.  ZERO PIVOT WHEN PROCESSING NODE 10486 INSTANCE 
             NDBR6 D.O.F. 11
  Typically a zero pivot is associated with an overconstraint in the model. 
 However, Abaqus was not able to identify any chains of constraints that might 
 lead to an overconstraint at this node. This suggests that the model might be 
 in fact insufficiently constrained in this particular degree of freedom. 
 Please check the constraints used in this model. 


 ***WARNING: SOLVER PROBLEM.  ZERO PIVOT WHEN PROCESSING NODE 10415 INSTANCE 
             NDBR6 D.O.F. 11
  Typically a zero pivot is associated with an overconstraint in the model. 
 However, Abaqus was not able to identify any chains of constraints that might 
 lead to an overconstraint at this node. This suggests that the model might be 
 in fact insufficiently constrained in this particular degree of freedom. 
 Please check the constraints used in this model. 


 ***WARNING: SOLVER PROBLEM.  ZERO PIVOT WHEN PROCESSING NODE 10344 INSTANCE 
             NDBR6 D.O.F. 11
  Typically a zero pivot is associated with an overconstraint in the model. 
 However, Abaqus was not able to identify any chains of constraints that might 
 lead to an overconstraint at this node. This suggests that the model might be 
 in fact insufficiently constrained in this particular degree of freedom. 
 Please check the constraints used in this model. 


 ***WARNING: SOLVER PROBLEM.  ZERO PIVOT WHEN PROCESSING NODE 10343 INSTANCE 
             NDBR6 D.O.F. 11
  Typically a zero pivot is associated with an overconstraint in the model. 
 However, Abaqus was not able to identify any chains of constraints that might 
 lead to an overconstraint at this node. This suggests that the model might be 
 in fact insufficiently constrained in this particular degree of freedom. 
 Please check the constraints used in this model. 


 ***WARNING: SOLVER PROBLEM.  ZERO PIVOT WHEN PROCESSING NODE 10342 INSTANCE 
             NDBR6 D.O.F. 11
  Typically a zero pivot is associated with an overconstraint in the model. 
 However, Abaqus was not able to identify any chains of constraints that might 
 lead to an overconstraint at this node. This suggests that the model might be 
 in fact insufficiently constrained in this particular degree of freedom. 
 Please check the constraints used in this model. 


 ***WARNING: SOLVER PROBLEM.  ZERO PIVOT WHEN PROCESSING NODE 10271 INSTANCE 
             NDBR6 D.O.F. 11
  Typically a zero pivot is associated with an overconstraint in the model. 
 However, Abaqus was not able to identify any chains of constraints that might 
 lead to an overconstraint at this node. This suggests that the model might be 
 in fact insufficiently constrained in this particular degree of freedom. 
 Please check the constraints used in this model. 


 ***WARNING: Solver problem. Zero pivot when processing D.O.F. 11 of 49 nodes. 
             The nodes have been identified in node set 
             WarnNodeSolvProbZeroPiv_11_2_1_1_1.

               CONVERGENCE CHECKS FOR EQUILIBRIUM ITERATION     1


 AVERAGE FORCE                      6.557E-02   TIME AVG. FORCE       6.557E-02
 LARGEST SCALED RESIDUAL FORCE      1.235E-03   AT NODE      40183   DOF  3
   INSTANCE: NDBR6                                                                           
  CORRESPONDING RESIDUAL FORCE      1.235E-03
 LARGEST INCREMENT OF DISP.         1.388E-05   AT NODE      40492   DOF  2
   INSTANCE: NDBR6                                                                           
 LARGEST CORRECTION TO DISP.        1.388E-05   AT NODE      40492   DOF  2
   INSTANCE: NDBR6                                                                           
          FORCE     EQUILIBRIUM NOT ACHIEVED WITHIN TOLERANCE.

 AVERAGE HEAT FLUX                  1.857E-16   TIME AVG. HEAT FLUX   1.000E-02
 LARGEST RESIDUAL HEAT FLUX         1.245E-18   AT NODE      40355   DOF 11
   INSTANCE: NDBR6                                                                           
 LARGEST INCREMENT OF TEMP.         2.333E-04   AT NODE      41991   DOF 11
   INSTANCE: NDBR6                                                                           
 LARGEST CORRECTION TO TEMP.        2.333E-04   AT NODE      41991   DOF 11
   INSTANCE: NDBR6                                                                           
          THERE IS ZERO HEAT FLUX EVERYWHERE
 

 ***WARNING: THERE IS ZERO HEAT FLUX EVERYWHERE IN THE MODEL BASED ON THE 
             DEFAULT CRITERION. PLEASE CHECK THE VALUE OF THE AVERAGE HEAT FLUX 
             DURING THE CURRENT ITERATION TO VERIFY THAT THE HEAT FLUX IS SMALL 
             ENOUGH TO BE TREATED AS ZERO. IF NOT, PLEASE USE THE SOLUTION 
             CONTROLS TO RESET THE CRITERION FOR ZERO HEAT FLUX.
 
	UNSYMMETRIC NEW DIRECT SPARSE SOLVER RUNNING ON
 	1 HOST x 1 MPI RANK PER HOST x 6 THREADS PER RANK
        NUMBER OF EQUATIONS:  168300
        NUMBER OF RHS:        1
        NUMBER OF FLOPS:      2.669e+11
        SOLVER ELAPSED TIME:  2.4s

               CONVERGENCE CHECKS FOR EQUILIBRIUM ITERATION     2


 AVERAGE FORCE                      6.556E-02   TIME AVG. FORCE       6.556E-02
 LARGEST SCALED RESIDUAL FORCE     -1.398E-08   AT NODE      40679   DOF  2
   INSTANCE: NDBR6                                                                           
  CORRESPONDING RESIDUAL FORCE     -1.398E-08
 LARGEST INCREMENT OF DISP.         1.388E-05   AT NODE      40492   DOF  2
   INSTANCE: NDBR6                                                                           
 LARGEST CORRECTION TO DISP.        5.834E-11   AT NODE      41015   DOF  2
   INSTANCE: NDBR6                                                                           
          THE FORCE     EQUILIBRIUM EQUATIONS HAVE CONVERGED

 AVERAGE HEAT FLUX                  1.857E-16   TIME AVG. HEAT FLUX   1.000E-02
 LARGEST RESIDUAL HEAT FLUX        -4.018E-23   AT NODE      40722   DOF 11
   INSTANCE: NDBR6                                                                           
 LARGEST INCREMENT OF TEMP.         2.333E-04   AT NODE      41991   DOF 11
   INSTANCE: NDBR6                                                                           
 LARGEST CORRECTION TO TEMP.        1.082E-08   AT NODE      41996   DOF 11
   INSTANCE: NDBR6                                                                           
          THERE IS ZERO HEAT FLUX EVERYWHERE
 

 ***WARNING: THERE IS ZERO HEAT FLUX EVERYWHERE IN THE MODEL BASED ON THE 
             DEFAULT CRITERION. PLEASE CHECK THE VALUE OF THE AVERAGE HEAT FLUX 
             DURING THE CURRENT ITERATION TO VERIFY THAT THE HEAT FLUX IS SMALL 
             ENOUGH TO BE TREATED AS ZERO. IF NOT, PLEASE USE THE SOLUTION 
             CONTROLS TO RESET THE CRITERION FOR ZERO HEAT FLUX.

 MAXIMUM NON-PRESCRIBED INCREMENT IN TEMPERATURE IS   2.333E-04

 ITERATION SUMMARY FOR THE INCREMENT:   2 TOTAL ITERATIONS, OF WHICH
   0 ARE SEVERE DISCONTINUITY ITERATIONS AND  2 ARE EQUILIBRIUM ITERATIONS.

 TIME INCREMENT COMPLETED   5.55    ,  FRACTION OF STEP COMPLETED  1.000E-02
 STEP TIME COMPLETED        5.55    ,  TOTAL TIME COMPLETED        7.206E+03


  INCREMENT     2 STARTS. ATTEMPT NUMBER  1, TIME INCREMENT   5.55    
 
	UNSYMMETRIC NEW DIRECT SPARSE SOLVER RUNNING ON
 	1 HOST x 1 MPI RANK PER HOST x 6 THREADS PER RANK
        NUMBER OF EQUATIONS:  168300
        NUMBER OF RHS:        1
        NUMBER OF FLOPS:      2.669e+11
        SOLVER ELAPSED TIME:  2.7s

               CONVERGENCE CHECKS FOR EQUILIBRIUM ITERATION     1


 AVERAGE FORCE                      0.145       TIME AVG. FORCE       0.105    
 LARGEST SCALED RESIDUAL FORCE     -3.181E-08   AT NODE      40491   DOF  2
   INSTANCE: NDBR6                                                                           
  CORRESPONDING RESIDUAL FORCE     -3.181E-08
 LARGEST INCREMENT OF DISP.         1.388E-05   AT NODE      40492   DOF  2
   INSTANCE: NDBR6                                                                           
 LARGEST CORRECTION TO DISP.        1.112E-10   AT NODE      41015   DOF  2
   INSTANCE: NDBR6                                                                           
          THE FORCE     EQUILIBRIUM EQUATIONS HAVE CONVERGED

 AVERAGE HEAT FLUX                  1.852E-16   TIME AVG. HEAT FLUX   1.000E-02
 LARGEST RESIDUAL HEAT FLUX        -7.855E-23   AT NODE      40788   DOF 11
   INSTANCE: NDBR6                                                                           
 LARGEST INCREMENT OF TEMP.        -4.629E-04   AT NODE      30741   DOF 11
   INSTANCE: NDBR6                                                                           
 LARGEST CORRECTION TO TEMP.       -4.664E-04   AT NODE      30741   DOF 11
   INSTANCE: NDBR6                                                                           
          THERE IS ZERO HEAT FLUX EVERYWHERE
 

 ***WARNING: THERE IS ZERO HEAT FLUX EVERYWHERE IN THE MODEL BASED ON THE 
             DEFAULT CRITERION. PLEASE CHECK THE VALUE OF THE AVERAGE HEAT FLUX 
             DURING THE CURRENT ITERATION TO VERIFY THAT THE HEAT FLUX IS SMALL 
             ENOUGH TO BE TREATED AS ZERO. IF NOT, PLEASE USE THE SOLUTION 
             CONTROLS TO RESET THE CRITERION FOR ZERO HEAT FLUX.

 MAXIMUM NON-PRESCRIBED INCREMENT IN TEMPERATURE IS  -4.629E-04

 ITERATION SUMMARY FOR THE INCREMENT:   1 TOTAL ITERATIONS, OF WHICH
   0 ARE SEVERE DISCONTINUITY ITERATIONS AND  1 ARE EQUILIBRIUM ITERATIONS.

 TIME INCREMENT COMPLETED   5.55    ,  FRACTION OF STEP COMPLETED  2.000E-02
 STEP TIME COMPLETED        11.1    ,  TOTAL TIME COMPLETED        7.211E+03


  INCREMENT     3 STARTS. ATTEMPT NUMBER  1, TIME INCREMENT   5.55    
 
	UNSYMMETRIC NEW DIRECT SPARSE SOLVER RUNNING ON
 	1 HOST x 1 MPI RANK PER HOST x 6 THREADS PER RANK
        NUMBER OF EQUATIONS:  168300
        NUMBER OF RHS:        1
        NUMBER OF FLOPS:      2.669e+11
        SOLVER ELAPSED TIME:  2.6s

               CONVERGENCE CHECKS FOR EQUILIBRIUM ITERATION     1


 AVERAGE FORCE                      0.218       TIME AVG. FORCE       0.143    
 LARGEST SCALED RESIDUAL FORCE     -5.665E-08   AT NODE      40491   DOF  2
   INSTANCE: NDBR6                                                                           
  CORRESPONDING RESIDUAL FORCE     -5.665E-08
 LARGEST INCREMENT OF DISP.         1.388E-05   AT NODE      40492   DOF  2
   INSTANCE: NDBR6                                                                           
 LARGEST CORRECTION TO DISP.        1.112E-10   AT NODE      41015   DOF  2
   INSTANCE: NDBR6                                                                           
          THE FORCE     EQUILIBRIUM EQUATIONS HAVE CONVERGED

 AVERAGE HEAT FLUX                  1.866E-16   TIME AVG. HEAT FLUX   1.000E-02
 LARGEST RESIDUAL HEAT FLUX        -7.780E-23   AT NODE      40722   DOF 11
   INSTANCE: NDBR6                                                                           
 LARGEST INCREMENT OF TEMP.        -8.081E-04   AT NODE      30741   DOF 11
   INSTANCE: NDBR6                                                                           
 LARGEST CORRECTION TO TEMP.       -3.452E-04   AT NODE      30741   DOF 11
   INSTANCE: NDBR6                                                                           
          THERE IS ZERO HEAT FLUX EVERYWHERE
 

 ***WARNING: THERE IS ZERO HEAT FLUX EVERYWHERE IN THE MODEL BASED ON THE 
             DEFAULT CRITERION. PLEASE CHECK THE VALUE OF THE AVERAGE HEAT FLUX 
             DURING THE CURRENT ITERATION TO VERIFY THAT THE HEAT FLUX IS SMALL 
             ENOUGH TO BE TREATED AS ZERO. IF NOT, PLEASE USE THE SOLUTION 
             CONTROLS TO RESET THE CRITERION FOR ZERO HEAT FLUX.

 MAXIMUM NON-PRESCRIBED INCREMENT IN TEMPERATURE IS  -8.081E-04

 ITERATION SUMMARY FOR THE INCREMENT:   1 TOTAL ITERATIONS, OF WHICH
   0 ARE SEVERE DISCONTINUITY ITERATIONS AND  1 ARE EQUILIBRIUM ITERATIONS.

 TIME INCREMENT COMPLETED   5.55    ,  FRACTION OF STEP COMPLETED  3.000E-02
 STEP TIME COMPLETED        16.6    ,  TOTAL TIME COMPLETED        7.217E+03


  INCREMENT     4 STARTS. ATTEMPT NUMBER  1, TIME INCREMENT   5.55    
 
	UNSYMMETRIC NEW DIRECT SPARSE SOLVER RUNNING ON
 	1 HOST x 1 MPI RANK PER HOST x 6 THREADS PER RANK
        NUMBER OF EQUATIONS:  168300
        NUMBER OF RHS:        1
        NUMBER OF FLOPS:      2.669e+11
        SOLVER ELAPSED TIME:  2.7s

               CONVERGENCE CHECKS FOR EQUILIBRIUM ITERATION     1


 AVERAGE FORCE                      0.290       TIME AVG. FORCE       0.180    
 LARGEST SCALED RESIDUAL FORCE     -8.148E-08   AT NODE      40491   DOF  2
   INSTANCE: NDBR6                                                                           
  CORRESPONDING RESIDUAL FORCE     -8.148E-08
 LARGEST INCREMENT OF DISP.         1.388E-05   AT NODE      40492   DOF  2
   INSTANCE: NDBR6                                                                           
 LARGEST CORRECTION TO DISP.        1.112E-10   AT NODE      41015   DOF  2
   INSTANCE: NDBR6                                                                           
          THE FORCE     EQUILIBRIUM EQUATIONS HAVE CONVERGED

 AVERAGE HEAT FLUX                  1.890E-16   TIME AVG. HEAT FLUX   1.000E-02
 LARGEST RESIDUAL HEAT FLUX        -7.727E-23   AT NODE      40788   DOF 11
   INSTANCE: NDBR6                                                                           
 LARGEST INCREMENT OF TEMP.        -1.068E-03   AT NODE      30741   DOF 11
   INSTANCE: NDBR6                                                                           
 LARGEST CORRECTION TO TEMP.       -2.598E-04   AT NODE      30741   DOF 11
   INSTANCE: NDBR6                                                                           
          THERE IS ZERO HEAT FLUX EVERYWHERE
 

 ***WARNING: THERE IS ZERO HEAT FLUX EVERYWHERE IN THE MODEL BASED ON THE 
             DEFAULT CRITERION. PLEASE CHECK THE VALUE OF THE AVERAGE HEAT FLUX 
             DURING THE CURRENT ITERATION TO VERIFY THAT THE HEAT FLUX IS SMALL 
             ENOUGH TO BE TREATED AS ZERO. IF NOT, PLEASE USE THE SOLUTION 
             CONTROLS TO RESET THE CRITERION FOR ZERO HEAT FLUX.

 MAXIMUM NON-PRESCRIBED INCREMENT IN TEMPERATURE IS  -1.068E-03

 ITERATION SUMMARY FOR THE INCREMENT:   1 TOTAL ITERATIONS, OF WHICH
   0 ARE SEVERE DISCONTINUITY ITERATIONS AND  1 ARE EQUILIBRIUM ITERATIONS.

 TIME INCREMENT COMPLETED   5.55    ,  FRACTION OF STEP COMPLETED  4.000E-02
 STEP TIME COMPLETED        22.2    ,  TOTAL TIME COMPLETED        7.222E+03


  INCREMENT     5 STARTS. ATTEMPT NUMBER  1, TIME INCREMENT   5.55    
 
	UNSYMMETRIC NEW DIRECT SPARSE SOLVER RUNNING ON
 	1 HOST x 1 MPI RANK PER HOST x 6 THREADS PER RANK
        NUMBER OF EQUATIONS:  168300
        NUMBER OF RHS:        1
        NUMBER OF FLOPS:      2.669e+11
        SOLVER ELAPSED TIME:  2.6s

               CONVERGENCE CHECKS FOR EQUILIBRIUM ITERATION     1


 AVERAGE FORCE                      0.363       TIME AVG. FORCE       0.216    
 LARGEST SCALED RESIDUAL FORCE     -1.063E-07   AT NODE      40491   DOF  2
   INSTANCE: NDBR6                                                                           
  CORRESPONDING RESIDUAL FORCE     -1.063E-07
 LARGEST INCREMENT OF DISP.         1.388E-05   AT NODE      40492   DOF  2
   INSTANCE: NDBR6                                                                           
 LARGEST CORRECTION TO DISP.        1.111E-10   AT NODE      41015   DOF  2
   INSTANCE: NDBR6                                                                           
          THE FORCE     EQUILIBRIUM EQUATIONS HAVE CONVERGED

 AVERAGE HEAT FLUX                  1.918E-16   TIME AVG. HEAT FLUX   1.000E-02
 LARGEST RESIDUAL HEAT FLUX        -7.689E-23   AT NODE      40788   DOF 11
   INSTANCE: NDBR6                                                                           
 LARGEST INCREMENT OF TEMP.        -1.266E-03   AT NODE      30741   DOF 11
   INSTANCE: NDBR6                                                                           
 LARGEST CORRECTION TO TEMP.       -1.983E-04   AT NODE      30741   DOF 11
   INSTANCE: NDBR6                                                                           
          THERE IS ZERO HEAT FLUX EVERYWHERE
 

 ***WARNING: THERE IS ZERO HEAT FLUX EVERYWHERE IN THE MODEL BASED ON THE 
             DEFAULT CRITERION. PLEASE CHECK THE VALUE OF THE AVERAGE HEAT FLUX 
             DURING THE CURRENT ITERATION TO VERIFY THAT THE HEAT FLUX IS SMALL 
             ENOUGH TO BE TREATED AS ZERO. IF NOT, PLEASE USE THE SOLUTION 
             CONTROLS TO RESET THE CRITERION FOR ZERO HEAT FLUX.

 MAXIMUM NON-PRESCRIBED INCREMENT IN TEMPERATURE IS  -1.266E-03

 ITERATION SUMMARY FOR THE INCREMENT:   1 TOTAL ITERATIONS, OF WHICH
   0 ARE SEVERE DISCONTINUITY ITERATIONS AND  1 ARE EQUILIBRIUM ITERATIONS.

 TIME INCREMENT COMPLETED   5.55    ,  FRACTION OF STEP COMPLETED  5.000E-02
 STEP TIME COMPLETED        27.8    ,  TOTAL TIME COMPLETED        7.228E+03


  INCREMENT     6 STARTS. ATTEMPT NUMBER  1, TIME INCREMENT   5.55    
 
	UNSYMMETRIC NEW DIRECT SPARSE SOLVER RUNNING ON
 	1 HOST x 1 MPI RANK PER HOST x 6 THREADS PER RANK
        NUMBER OF EQUATIONS:  168300
        NUMBER OF RHS:        1
        NUMBER OF FLOPS:      2.669e+11
        SOLVER ELAPSED TIME:  2.1s

               CONVERGENCE CHECKS FOR EQUILIBRIUM ITERATION     1


 AVERAGE FORCE                      0.435       TIME AVG. FORCE       0.253    
 LARGEST SCALED RESIDUAL FORCE     -1.311E-07   AT NODE      40491   DOF  2
   INSTANCE: NDBR6                                                                           
  CORRESPONDING RESIDUAL FORCE     -1.311E-07
 LARGEST INCREMENT OF DISP.         1.388E-05   AT NODE      40492   DOF  2
   INSTANCE: NDBR6                                                                           
 LARGEST CORRECTION TO DISP.        1.111E-10   AT NODE      41015   DOF  2
   INSTANCE: NDBR6                                                                           
          THE FORCE     EQUILIBRIUM EQUATIONS HAVE CONVERGED

 AVERAGE HEAT FLUX                  1.950E-16   TIME AVG. HEAT FLUX   1.000E-02
 LARGEST RESIDUAL HEAT FLUX        -7.612E-23   AT NODE      40722   DOF 11
   INSTANCE: NDBR6                                                                           
 LARGEST INCREMENT OF TEMP.        -1.419E-03   AT NODE      30741   DOF 11
   INSTANCE: NDBR6                                                                           
 LARGEST CORRECTION TO TEMP.       -1.533E-04   AT NODE      30741   DOF 11
   INSTANCE: NDBR6                                                                           
          THERE IS ZERO HEAT FLUX EVERYWHERE
 

 ***WARNING: THERE IS ZERO HEAT FLUX EVERYWHERE IN THE MODEL BASED ON THE 
             DEFAULT CRITERION. PLEASE CHECK THE VALUE OF THE AVERAGE HEAT FLUX 
             DURING THE CURRENT ITERATION TO VERIFY THAT THE HEAT FLUX IS SMALL 
             ENOUGH TO BE TREATED AS ZERO. IF NOT, PLEASE USE THE SOLUTION 
             CONTROLS TO RESET THE CRITERION FOR ZERO HEAT FLUX.

 MAXIMUM NON-PRESCRIBED INCREMENT IN TEMPERATURE IS  -1.419E-03

 ITERATION SUMMARY FOR THE INCREMENT:   1 TOTAL ITERATIONS, OF WHICH
   0 ARE SEVERE DISCONTINUITY ITERATIONS AND  1 ARE EQUILIBRIUM ITERATIONS.

 TIME INCREMENT COMPLETED   5.55    ,  FRACTION OF STEP COMPLETED  6.000E-02
 STEP TIME COMPLETED        33.3    ,  TOTAL TIME COMPLETED        7.233E+03


  INCREMENT     7 STARTS. ATTEMPT NUMBER  1, TIME INCREMENT   5.55    
 
	UNSYMMETRIC NEW DIRECT SPARSE SOLVER RUNNING ON
 	1 HOST x 1 MPI RANK PER HOST x 6 THREADS PER RANK
        NUMBER OF EQUATIONS:  168300
        NUMBER OF RHS:        1
        NUMBER OF FLOPS:      2.669e+11
        SOLVER ELAPSED TIME:  1.5s

               CONVERGENCE CHECKS FOR EQUILIBRIUM ITERATION     1


 AVERAGE FORCE                      0.508       TIME AVG. FORCE       0.289    
 LARGEST SCALED RESIDUAL FORCE     -1.559E-07   AT NODE      40491   DOF  2
   INSTANCE: NDBR6                                                                           
  CORRESPONDING RESIDUAL FORCE     -1.559E-07
 LARGEST INCREMENT OF DISP.         1.388E-05   AT NODE      40492   DOF  2
   INSTANCE: NDBR6                                                                           
 LARGEST CORRECTION TO DISP.        1.111E-10   AT NODE      41015   DOF  2
   INSTANCE: NDBR6                                                                           
          THE FORCE     EQUILIBRIUM EQUATIONS HAVE CONVERGED

 AVERAGE HEAT FLUX                  1.985E-16   TIME AVG. HEAT FLUX   1.000E-02
 LARGEST RESIDUAL HEAT FLUX        -7.527E-23   AT NODE      40722   DOF 11
   INSTANCE: NDBR6                                                                           
 LARGEST INCREMENT OF TEMP.        -1.539E-03   AT NODE      30741   DOF 11
   INSTANCE: NDBR6                                                                           
 LARGEST CORRECTION TO TEMP.       -1.197E-04   AT NODE      30741   DOF 11
   INSTANCE: NDBR6                                                                           
          THERE IS ZERO HEAT FLUX EVERYWHERE
 

 ***WARNING: THERE IS ZERO HEAT FLUX EVERYWHERE IN THE MODEL BASED ON THE 
             DEFAULT CRITERION. PLEASE CHECK THE VALUE OF THE AVERAGE HEAT FLUX 
             DURING THE CURRENT ITERATION TO VERIFY THAT THE HEAT FLUX IS SMALL 
             ENOUGH TO BE TREATED AS ZERO. IF NOT, PLEASE USE THE SOLUTION 
             CONTROLS TO RESET THE CRITERION FOR ZERO HEAT FLUX.

 MAXIMUM NON-PRESCRIBED INCREMENT IN TEMPERATURE IS  -1.539E-03

 ITERATION SUMMARY FOR THE INCREMENT:   1 TOTAL ITERATIONS, OF WHICH
   0 ARE SEVERE DISCONTINUITY ITERATIONS AND  1 ARE EQUILIBRIUM ITERATIONS.

 TIME INCREMENT COMPLETED   5.55    ,  FRACTION OF STEP COMPLETED  7.000E-02
 STEP TIME COMPLETED        38.8    ,  TOTAL TIME COMPLETED        7.239E+03


  INCREMENT     8 STARTS. ATTEMPT NUMBER  1, TIME INCREMENT   5.55    
 
	UNSYMMETRIC NEW DIRECT SPARSE SOLVER RUNNING ON
 	1 HOST x 1 MPI RANK PER HOST x 6 THREADS PER RANK
        NUMBER OF EQUATIONS:  168300
        NUMBER OF RHS:        1
        NUMBER OF FLOPS:      2.669e+11
        SOLVER ELAPSED TIME:  1.5s

               CONVERGENCE CHECKS FOR EQUILIBRIUM ITERATION     1


 AVERAGE FORCE                      0.580       TIME AVG. FORCE       0.326    
 LARGEST SCALED RESIDUAL FORCE     -1.807E-07   AT NODE      40491   DOF  2
   INSTANCE: NDBR6                                                                           
  CORRESPONDING RESIDUAL FORCE     -1.807E-07
 LARGEST INCREMENT OF DISP.         1.388E-05   AT NODE      40492   DOF  2
   INSTANCE: NDBR6                                                                           
 LARGEST CORRECTION TO DISP.        1.111E-10   AT NODE      41015   DOF  2
   INSTANCE: NDBR6                                                                           
          THE FORCE     EQUILIBRIUM EQUATIONS HAVE CONVERGED

 AVERAGE HEAT FLUX                  2.022E-16   TIME AVG. HEAT FLUX   1.000E-02
 LARGEST RESIDUAL HEAT FLUX        -7.450E-23   AT NODE      40722   DOF 11
   INSTANCE: NDBR6                                                                           
 LARGEST INCREMENT OF TEMP.        -1.634E-03   AT NODE      30741   DOF 11
   INSTANCE: NDBR6                                                                           
 LARGEST CORRECTION TO TEMP.       -9.440E-05   AT NODE      30741   DOF 11
   INSTANCE: NDBR6                                                                           
          THERE IS ZERO HEAT FLUX EVERYWHERE
 

 ***WARNING: THERE IS ZERO HEAT FLUX EVERYWHERE IN THE MODEL BASED ON THE 
             DEFAULT CRITERION. PLEASE CHECK THE VALUE OF THE AVERAGE HEAT FLUX 
             DURING THE CURRENT ITERATION TO VERIFY THAT THE HEAT FLUX IS SMALL 
             ENOUGH TO BE TREATED AS ZERO. IF NOT, PLEASE USE THE SOLUTION 
             CONTROLS TO RESET THE CRITERION FOR ZERO HEAT FLUX.

 MAXIMUM NON-PRESCRIBED INCREMENT IN TEMPERATURE IS  -1.634E-03

 ITERATION SUMMARY FOR THE INCREMENT:   1 TOTAL ITERATIONS, OF WHICH
   0 ARE SEVERE DISCONTINUITY ITERATIONS AND  1 ARE EQUILIBRIUM ITERATIONS.

 TIME INCREMENT COMPLETED   5.55    ,  FRACTION OF STEP COMPLETED  8.000E-02
 STEP TIME COMPLETED        44.4    ,  TOTAL TIME COMPLETED        7.244E+03


  INCREMENT     9 STARTS. ATTEMPT NUMBER  1, TIME INCREMENT   5.55    
 
	UNSYMMETRIC NEW DIRECT SPARSE SOLVER RUNNING ON
 	1 HOST x 1 MPI RANK PER HOST x 6 THREADS PER RANK
        NUMBER OF EQUATIONS:  168300
        NUMBER OF RHS:        1
        NUMBER OF FLOPS:      2.669e+11
        SOLVER ELAPSED TIME:  2.7s

               CONVERGENCE CHECKS FOR EQUILIBRIUM ITERATION     1


 AVERAGE FORCE                      0.653       TIME AVG. FORCE       0.362    
 LARGEST SCALED RESIDUAL FORCE     -2.055E-07   AT NODE      40491   DOF  2
   INSTANCE: NDBR6                                                                           
  CORRESPONDING RESIDUAL FORCE     -2.055E-07
 LARGEST INCREMENT OF DISP.         1.388E-05   AT NODE      40492   DOF  2
   INSTANCE: NDBR6                                                                           
 LARGEST CORRECTION TO DISP.        1.111E-10   AT NODE      41015   DOF  2
   INSTANCE: NDBR6                                                                           
          THE FORCE     EQUILIBRIUM EQUATIONS HAVE CONVERGED

 AVERAGE HEAT FLUX                  2.060E-16   TIME AVG. HEAT FLUX   1.000E-02
 LARGEST RESIDUAL HEAT FLUX        -7.424E-23   AT NODE      40788   DOF 11
   INSTANCE: NDBR6                                                                           
 LARGEST INCREMENT OF TEMP.        -1.709E-03   AT NODE      30741   DOF 11
   INSTANCE: NDBR6                                                                           
 LARGEST CORRECTION TO TEMP.       -7.504E-05   AT NODE      30741   DOF 11
   INSTANCE: NDBR6                                                                           
          THERE IS ZERO HEAT FLUX EVERYWHERE
 

 ***WARNING: THERE IS ZERO HEAT FLUX EVERYWHERE IN THE MODEL BASED ON THE 
             DEFAULT CRITERION. PLEASE CHECK THE VALUE OF THE AVERAGE HEAT FLUX 
             DURING THE CURRENT ITERATION TO VERIFY THAT THE HEAT FLUX IS SMALL 
             ENOUGH TO BE TREATED AS ZERO. IF NOT, PLEASE USE THE SOLUTION 
             CONTROLS TO RESET THE CRITERION FOR ZERO HEAT FLUX.

 MAXIMUM NON-PRESCRIBED INCREMENT IN TEMPERATURE IS  -1.709E-03

 ITERATION SUMMARY FOR THE INCREMENT:   1 TOTAL ITERATIONS, OF WHICH
   0 ARE SEVERE DISCONTINUITY ITERATIONS AND  1 ARE EQUILIBRIUM ITERATIONS.

 TIME INCREMENT COMPLETED   5.55    ,  FRACTION OF STEP COMPLETED  9.000E-02
 STEP TIME COMPLETED        49.9    ,  TOTAL TIME COMPLETED        7.250E+03


  INCREMENT    10 STARTS. ATTEMPT NUMBER  1, TIME INCREMENT   5.55    
 
	UNSYMMETRIC NEW DIRECT SPARSE SOLVER RUNNING ON
 	1 HOST x 1 MPI RANK PER HOST x 6 THREADS PER RANK
        NUMBER OF EQUATIONS:  168300
        NUMBER OF RHS:        1
        NUMBER OF FLOPS:      2.669e+11
        SOLVER ELAPSED TIME:  2.7s

               CONVERGENCE CHECKS FOR EQUILIBRIUM ITERATION     1


 AVERAGE FORCE                      0.725       TIME AVG. FORCE       0.398    
 LARGEST SCALED RESIDUAL FORCE     -2.303E-07   AT NODE      40491   DOF  2
   INSTANCE: NDBR6                                                                           
  CORRESPONDING RESIDUAL FORCE     -2.303E-07
 LARGEST INCREMENT OF DISP.         1.388E-05   AT NODE      40492   DOF  2
   INSTANCE: NDBR6                                                                           
 LARGEST CORRECTION TO DISP.        1.111E-10   AT NODE      41015   DOF  2
   INSTANCE: NDBR6                                                                           
          THE FORCE     EQUILIBRIUM EQUATIONS HAVE CONVERGED

 AVERAGE HEAT FLUX                  2.100E-16   TIME AVG. HEAT FLUX   1.000E-02
 LARGEST RESIDUAL HEAT FLUX        -7.354E-23   AT NODE      40722   DOF 11
   INSTANCE: NDBR6                                                                           
 LARGEST INCREMENT OF TEMP.        -1.769E-03   AT NODE      30741   DOF 11
   INSTANCE: NDBR6                                                                           
 LARGEST CORRECTION TO TEMP.       -6.386E-05   AT NODE      32655   DOF 11
   INSTANCE: NDBR6                                                                           
          THERE IS ZERO HEAT FLUX EVERYWHERE
 

 ***WARNING: THERE IS ZERO HEAT FLUX EVERYWHERE IN THE MODEL BASED ON THE 
             DEFAULT CRITERION. PLEASE CHECK THE VALUE OF THE AVERAGE HEAT FLUX 
             DURING THE CURRENT ITERATION TO VERIFY THAT THE HEAT FLUX IS SMALL 
             ENOUGH TO BE TREATED AS ZERO. IF NOT, PLEASE USE THE SOLUTION 
             CONTROLS TO RESET THE CRITERION FOR ZERO HEAT FLUX.

 MAXIMUM NON-PRESCRIBED INCREMENT IN TEMPERATURE IS  -1.769E-03

 ITERATION SUMMARY FOR THE INCREMENT:   1 TOTAL ITERATIONS, OF WHICH
   0 ARE SEVERE DISCONTINUITY ITERATIONS AND  1 ARE EQUILIBRIUM ITERATIONS.

 TIME INCREMENT COMPLETED   5.55    ,  FRACTION OF STEP COMPLETED  0.100    
 STEP TIME COMPLETED        55.5    ,  TOTAL TIME COMPLETED        7.256E+03


  INCREMENT    11 STARTS. ATTEMPT NUMBER  1, TIME INCREMENT   5.55    
 
	UNSYMMETRIC NEW DIRECT SPARSE SOLVER RUNNING ON
 	1 HOST x 1 MPI RANK PER HOST x 6 THREADS PER RANK
        NUMBER OF EQUATIONS:  168300
        NUMBER OF RHS:        1
        NUMBER OF FLOPS:      2.669e+11
        SOLVER ELAPSED TIME:  2.7s

               CONVERGENCE CHECKS FOR EQUILIBRIUM ITERATION     1


 AVERAGE FORCE                      0.798       TIME AVG. FORCE       0.435    
 LARGEST SCALED RESIDUAL FORCE     -2.550E-07   AT NODE      40491   DOF  2
   INSTANCE: NDBR6                                                                           
  CORRESPONDING RESIDUAL FORCE     -2.550E-07
 LARGEST INCREMENT OF DISP.         1.388E-05   AT NODE      40492   DOF  2
   INSTANCE: NDBR6                                                                           
 LARGEST CORRECTION TO DISP.        1.111E-10   AT NODE      41015   DOF  2
   INSTANCE: NDBR6                                                                           
          THE FORCE     EQUILIBRIUM EQUATIONS HAVE CONVERGED

 AVERAGE HEAT FLUX                  2.141E-16   TIME AVG. HEAT FLUX   1.000E-02
 LARGEST RESIDUAL HEAT FLUX        -7.282E-23   AT NODE      40788   DOF 11
   INSTANCE: NDBR6                                                                           
 LARGEST INCREMENT OF TEMP.        -1.817E-03   AT NODE      30741   DOF 11
   INSTANCE: NDBR6                                                                           
 LARGEST CORRECTION TO TEMP.       -6.080E-05   AT NODE      32655   DOF 11
   INSTANCE: NDBR6                                                                           
          THERE IS ZERO HEAT FLUX EVERYWHERE
 

 ***WARNING: THERE IS ZERO HEAT FLUX EVERYWHERE IN THE MODEL BASED ON THE 
             DEFAULT CRITERION. PLEASE CHECK THE VALUE OF THE AVERAGE HEAT FLUX 
             DURING THE CURRENT ITERATION TO VERIFY THAT THE HEAT FLUX IS SMALL 
             ENOUGH TO BE TREATED AS ZERO. IF NOT, PLEASE USE THE SOLUTION 
             CONTROLS TO RESET THE CRITERION FOR ZERO HEAT FLUX.

 MAXIMUM NON-PRESCRIBED INCREMENT IN TEMPERATURE IS  -1.817E-03

 ITERATION SUMMARY FOR THE INCREMENT:   1 TOTAL ITERATIONS, OF WHICH
   0 ARE SEVERE DISCONTINUITY ITERATIONS AND  1 ARE EQUILIBRIUM ITERATIONS.

 TIME INCREMENT COMPLETED   5.55    ,  FRACTION OF STEP COMPLETED  0.110    
 STEP TIME COMPLETED        61.0    ,  TOTAL TIME COMPLETED        7.261E+03


  INCREMENT    12 STARTS. ATTEMPT NUMBER  1, TIME INCREMENT   5.55    
 
	UNSYMMETRIC NEW DIRECT SPARSE SOLVER RUNNING ON
 	1 HOST x 1 MPI RANK PER HOST x 6 THREADS PER RANK
        NUMBER OF EQUATIONS:  168300
        NUMBER OF RHS:        1
        NUMBER OF FLOPS:      2.669e+11
        SOLVER ELAPSED TIME:  2.7s

               CONVERGENCE CHECKS FOR EQUILIBRIUM ITERATION     1


 AVERAGE FORCE                      0.870       TIME AVG. FORCE       0.471    
 LARGEST SCALED RESIDUAL FORCE     -2.798E-07   AT NODE      40491   DOF  2
   INSTANCE: NDBR6                                                                           
  CORRESPONDING RESIDUAL FORCE     -2.798E-07
 LARGEST INCREMENT OF DISP.         1.388E-05   AT NODE      40492   DOF  2
   INSTANCE: NDBR6                                                                           
 LARGEST CORRECTION TO DISP.        1.111E-10   AT NODE      41015   DOF  2
   INSTANCE: NDBR6                                                                           
          THE FORCE     EQUILIBRIUM EQUATIONS HAVE CONVERGED

 AVERAGE HEAT FLUX                  2.183E-16   TIME AVG. HEAT FLUX   1.000E-02
 LARGEST RESIDUAL HEAT FLUX        -7.204E-23   AT NODE      40722   DOF 11
   INSTANCE: NDBR6                                                                           
 LARGEST INCREMENT OF TEMP.        -1.856E-03   AT NODE      30741   DOF 11
   INSTANCE: NDBR6                                                                           
 LARGEST CORRECTION TO TEMP.       -5.791E-05   AT NODE      32655   DOF 11
   INSTANCE: NDBR6                                                                           
          THERE IS ZERO HEAT FLUX EVERYWHERE
 

 ***WARNING: THERE IS ZERO HEAT FLUX EVERYWHERE IN THE MODEL BASED ON THE 
             DEFAULT CRITERION. PLEASE CHECK THE VALUE OF THE AVERAGE HEAT FLUX 
             DURING THE CURRENT ITERATION TO VERIFY THAT THE HEAT FLUX IS SMALL 
             ENOUGH TO BE TREATED AS ZERO. IF NOT, PLEASE USE THE SOLUTION 
             CONTROLS TO RESET THE CRITERION FOR ZERO HEAT FLUX.

 MAXIMUM NON-PRESCRIBED INCREMENT IN TEMPERATURE IS  -1.856E-03

 ITERATION SUMMARY FOR THE INCREMENT:   1 TOTAL ITERATIONS, OF WHICH
   0 ARE SEVERE DISCONTINUITY ITERATIONS AND  1 ARE EQUILIBRIUM ITERATIONS.

 TIME INCREMENT COMPLETED   5.55    ,  FRACTION OF STEP COMPLETED  0.120    
 STEP TIME COMPLETED        66.6    ,  TOTAL TIME COMPLETED        7.267E+03


  INCREMENT    13 STARTS. ATTEMPT NUMBER  1, TIME INCREMENT   5.55    
 
	UNSYMMETRIC NEW DIRECT SPARSE SOLVER RUNNING ON
 	1 HOST x 1 MPI RANK PER HOST x 6 THREADS PER RANK
        NUMBER OF EQUATIONS:  168300
        NUMBER OF RHS:        1
        NUMBER OF FLOPS:      2.669e+11
        SOLVER ELAPSED TIME:  2.6s

               CONVERGENCE CHECKS FOR EQUILIBRIUM ITERATION     1


 AVERAGE FORCE                      0.943       TIME AVG. FORCE       0.507    
 LARGEST SCALED RESIDUAL FORCE     -3.045E-07   AT NODE      40491   DOF  2
   INSTANCE: NDBR6                                                                           
  CORRESPONDING RESIDUAL FORCE     -3.045E-07
 LARGEST INCREMENT OF DISP.         1.388E-05   AT NODE      40492   DOF  2
   INSTANCE: NDBR6                                                                           
 LARGEST CORRECTION TO DISP.        1.111E-10   AT NODE      41015   DOF  2
   INSTANCE: NDBR6                                                                           
          THE FORCE     EQUILIBRIUM EQUATIONS HAVE CONVERGED

 AVERAGE HEAT FLUX                  2.227E-16   TIME AVG. HEAT FLUX   1.000E-02
 LARGEST RESIDUAL HEAT FLUX        -7.465E-23   AT NODE      41148   DOF 11
   INSTANCE: NDBR6                                                                           
 LARGEST INCREMENT OF TEMP.        -1.888E-03   AT NODE      30741   DOF 11
   INSTANCE: NDBR6                                                                           
 LARGEST CORRECTION TO TEMP.       -5.518E-05   AT NODE      32655   DOF 11
   INSTANCE: NDBR6                                                                           
          THERE IS ZERO HEAT FLUX EVERYWHERE
 

 ***WARNING: THERE IS ZERO HEAT FLUX EVERYWHERE IN THE MODEL BASED ON THE 
             DEFAULT CRITERION. PLEASE CHECK THE VALUE OF THE AVERAGE HEAT FLUX 
             DURING THE CURRENT ITERATION TO VERIFY THAT THE HEAT FLUX IS SMALL 
             ENOUGH TO BE TREATED AS ZERO. IF NOT, PLEASE USE THE SOLUTION 
             CONTROLS TO RESET THE CRITERION FOR ZERO HEAT FLUX.

 MAXIMUM NON-PRESCRIBED INCREMENT IN TEMPERATURE IS  -1.888E-03

 ITERATION SUMMARY FOR THE INCREMENT:   1 TOTAL ITERATIONS, OF WHICH
   0 ARE SEVERE DISCONTINUITY ITERATIONS AND  1 ARE EQUILIBRIUM ITERATIONS.

 TIME INCREMENT COMPLETED   5.55    ,  FRACTION OF STEP COMPLETED  0.130    
 STEP TIME COMPLETED        72.1    ,  TOTAL TIME COMPLETED        7.272E+03


  INCREMENT    14 STARTS. ATTEMPT NUMBER  1, TIME INCREMENT   5.55    
 
	UNSYMMETRIC NEW DIRECT SPARSE SOLVER RUNNING ON
 	1 HOST x 1 MPI RANK PER HOST x 6 THREADS PER RANK
        NUMBER OF EQUATIONS:  168300
        NUMBER OF RHS:        1
        NUMBER OF FLOPS:      2.669e+11
        SOLVER ELAPSED TIME:  2.7s

[...]
 LARGEST CORRECTION TO DISP.        8.912E-09   AT NODE       7117   DOF  3
   INSTANCE: NDBR6                                                                           
          THE FORCE     EQUILIBRIUM EQUATIONS HAVE CONVERGED

 AVERAGE HEAT FLUX                  1.723E-15   TIME AVG. HEAT FLUX   1.000E-02
 LARGEST RESIDUAL HEAT FLUX         4.284E-17   AT NODE      28570   DOF 11
   INSTANCE: NDBR6                                                                           
 LARGEST INCREMENT OF TEMP.         0.130       AT NODE       6519   DOF 11
   INSTANCE: NDBR6                                                                           
 LARGEST CORRECTION TO TEMP.       -1.219E-02   AT NODE      28570   DOF 11
   INSTANCE: NDBR6                                                                           
          THERE IS ZERO HEAT FLUX EVERYWHERE
 

 ***WARNING: THERE IS ZERO HEAT FLUX EVERYWHERE IN THE MODEL BASED ON THE 
             DEFAULT CRITERION. PLEASE CHECK THE VALUE OF THE AVERAGE HEAT FLUX 
             DURING THE CURRENT ITERATION TO VERIFY THAT THE HEAT FLUX IS SMALL 
             ENOUGH TO BE TREATED AS ZERO. IF NOT, PLEASE USE THE SOLUTION 
             CONTROLS TO RESET THE CRITERION FOR ZERO HEAT FLUX.

 MAXIMUM NON-PRESCRIBED INCREMENT IN TEMPERATURE IS   0.130    

 ITERATION SUMMARY FOR THE INCREMENT:   4 TOTAL ITERATIONS, OF WHICH
   0 ARE SEVERE DISCONTINUITY ITERATIONS AND  4 ARE EQUILIBRIUM ITERATIONS.

 TIME INCREMENT COMPLETED   5.55    ,  FRACTION OF STEP COMPLETED  0.980    
 STEP TIME COMPLETED        544.    ,  TOTAL TIME COMPLETED        7.744E+03


  INCREMENT   102 STARTS. ATTEMPT NUMBER  1, TIME INCREMENT   5.55    
 
	UNSYMMETRIC NEW DIRECT SPARSE SOLVER RUNNING ON
 	1 HOST x 1 MPI RANK PER HOST x 6 THREADS PER RANK
        NUMBER OF EQUATIONS:  168300
        NUMBER OF RHS:        1
        NUMBER OF FLOPS:      2.669e+11
        SOLVER ELAPSED TIME:  1.6s

               CONVERGENCE CHECKS FOR EQUILIBRIUM ITERATION     1


 AVERAGE FORCE                       3.05       TIME AVG. FORCE        2.81    
 LARGEST SCALED RESIDUAL FORCE      -1.03       AT NODE       2418   DOF  3
   INSTANCE: NDBR6                                                                           
  CORRESPONDING RESIDUAL FORCE      -1.03    
 LARGEST INCREMENT OF DISP.         2.633E-05   AT NODE       5072   DOF  2
   INSTANCE: NDBR6                                                                           
 LARGEST CORRECTION TO DISP.        3.049E-06   AT NODE       5615   DOF  2
   INSTANCE: NDBR6                                                                           
          FORCE     EQUILIBRIUM NOT ACHIEVED WITHIN TOLERANCE.

 AVERAGE HEAT FLUX                  1.760E-15   TIME AVG. HEAT FLUX   1.000E-02
 LARGEST RESIDUAL HEAT FLUX         1.667E-14   AT NODE      11658   DOF 11
   INSTANCE: NDBR6                                                                           
 LARGEST INCREMENT OF TEMP.         0.146       AT NODE       6519   DOF 11
   INSTANCE: NDBR6                                                                           
 LARGEST CORRECTION TO TEMP.        0.113       AT NODE      11632   DOF 11
   INSTANCE: NDBR6                                                                           
          THERE IS ZERO HEAT FLUX EVERYWHERE
 

 ***WARNING: THERE IS ZERO HEAT FLUX EVERYWHERE IN THE MODEL BASED ON THE 
             DEFAULT CRITERION. PLEASE CHECK THE VALUE OF THE AVERAGE HEAT FLUX 
             DURING THE CURRENT ITERATION TO VERIFY THAT THE HEAT FLUX IS SMALL 
             ENOUGH TO BE TREATED AS ZERO. IF NOT, PLEASE USE THE SOLUTION 
             CONTROLS TO RESET THE CRITERION FOR ZERO HEAT FLUX.
 
	UNSYMMETRIC NEW DIRECT SPARSE SOLVER RUNNING ON
 	1 HOST x 1 MPI RANK PER HOST x 6 THREADS PER RANK
        NUMBER OF EQUATIONS:  168300
        NUMBER OF RHS:        1
        NUMBER OF FLOPS:      2.669e+11
        SOLVER ELAPSED TIME:  1.5s

               CONVERGENCE CHECKS FOR EQUILIBRIUM ITERATION     2


 AVERAGE FORCE                       3.06       TIME AVG. FORCE        2.81    
 LARGEST SCALED RESIDUAL FORCE     -0.247       AT NODE       2769   DOF  3
   INSTANCE: NDBR6                                                                           
  CORRESPONDING RESIDUAL FORCE     -0.247    
 LARGEST INCREMENT OF DISP.         2.492E-05   AT NODE       5072   DOF  2
   INSTANCE: NDBR6                                                                           
 LARGEST CORRECTION TO DISP.       -1.446E-06   AT NODE       5616   DOF  2
   INSTANCE: NDBR6                                                                           
          FORCE     EQUILIBRIUM NOT ACHIEVED WITHIN TOLERANCE.

 AVERAGE HEAT FLUX                  1.758E-15   TIME AVG. HEAT FLUX   1.000E-02
 LARGEST RESIDUAL HEAT FLUX        -1.332E-14   AT NODE      11658   DOF 11
   INSTANCE: NDBR6                                                                           
 LARGEST INCREMENT OF TEMP.         0.147       AT NODE       6519   DOF 11
   INSTANCE: NDBR6                                                                           
 LARGEST CORRECTION TO TEMP.        3.276E-02   AT NODE      11704   DOF 11
   INSTANCE: NDBR6                                                                           
          THERE IS ZERO HEAT FLUX EVERYWHERE
 

 ***WARNING: THERE IS ZERO HEAT FLUX EVERYWHERE IN THE MODEL BASED ON THE 
             DEFAULT CRITERION. PLEASE CHECK THE VALUE OF THE AVERAGE HEAT FLUX 
             DURING THE CURRENT ITERATION TO VERIFY THAT THE HEAT FLUX IS SMALL 
             ENOUGH TO BE TREATED AS ZERO. IF NOT, PLEASE USE THE SOLUTION 
             CONTROLS TO RESET THE CRITERION FOR ZERO HEAT FLUX.
 
	UNSYMMETRIC NEW DIRECT SPARSE SOLVER RUNNING ON
 	1 HOST x 1 MPI RANK PER HOST x 6 THREADS PER RANK
        NUMBER OF EQUATIONS:  168300
        NUMBER OF RHS:        1
        NUMBER OF FLOPS:      2.669e+11
        SOLVER ELAPSED TIME:  1.5s

               CONVERGENCE CHECKS FOR EQUILIBRIUM ITERATION     3


 AVERAGE FORCE                       3.06       TIME AVG. FORCE        2.81    
 LARGEST SCALED RESIDUAL FORCE      4.669E-02   AT NODE      26917   DOF  3
   INSTANCE: NDBR6                                                                           
  CORRESPONDING RESIDUAL FORCE      4.669E-02
 LARGEST INCREMENT OF DISP.         2.487E-05   AT NODE       5072   DOF  2
   INSTANCE: NDBR6                                                                           
 LARGEST CORRECTION TO DISP.        1.700E-07   AT NODE       7101   DOF  3
   INSTANCE: NDBR6                                                                           
          FORCE     EQUILIBRIUM NOT ACHIEVED WITHIN TOLERANCE.

 AVERAGE HEAT FLUX                  1.756E-15   TIME AVG. HEAT FLUX   1.000E-02
 LARGEST RESIDUAL HEAT FLUX        -6.908E-15   AT NODE      11704   DOF 11
   INSTANCE: NDBR6                                                                           
 LARGEST INCREMENT OF TEMP.         0.147       AT NODE       6519   DOF 11
   INSTANCE: NDBR6                                                                           
 LARGEST CORRECTION TO TEMP.       -3.035E-02   AT NODE       6542   DOF 11
   INSTANCE: NDBR6                                                                           
          THERE IS ZERO HEAT FLUX EVERYWHERE
 

 ***WARNING: THERE IS ZERO HEAT FLUX EVERYWHERE IN THE MODEL BASED ON THE 
             DEFAULT CRITERION. PLEASE CHECK THE VALUE OF THE AVERAGE HEAT FLUX 
             DURING THE CURRENT ITERATION TO VERIFY THAT THE HEAT FLUX IS SMALL 
             ENOUGH TO BE TREATED AS ZERO. IF NOT, PLEASE USE THE SOLUTION 
             CONTROLS TO RESET THE CRITERION FOR ZERO HEAT FLUX.
 
	UNSYMMETRIC NEW DIRECT SPARSE SOLVER RUNNING ON
 	1 HOST x 1 MPI RANK PER HOST x 6 THREADS PER RANK
        NUMBER OF EQUATIONS:  168300
        NUMBER OF RHS:        1
        NUMBER OF FLOPS:      2.669e+11
        SOLVER ELAPSED TIME:  1.6s

               CONVERGENCE CHECKS FOR EQUILIBRIUM ITERATION     4


 AVERAGE FORCE                       3.06       TIME AVG. FORCE        2.81    
 LARGEST SCALED RESIDUAL FORCE      3.091E-03   AT NODE      27170   DOF  3
   INSTANCE: NDBR6                                                                           
  CORRESPONDING RESIDUAL FORCE      3.091E-03
 LARGEST INCREMENT OF DISP.         2.486E-05   AT NODE       5072   DOF  2
   INSTANCE: NDBR6                                                                           
 LARGEST CORRECTION TO DISP.        1.433E-08   AT NODE       7100   DOF  3
   INSTANCE: NDBR6                                                                           
          THE FORCE     EQUILIBRIUM EQUATIONS HAVE CONVERGED

 AVERAGE HEAT FLUX                  1.756E-15   TIME AVG. HEAT FLUX   1.000E-02
 LARGEST RESIDUAL HEAT FLUX         1.017E-16   AT NODE      11587   DOF 11
   INSTANCE: NDBR6                                                                           
 LARGEST INCREMENT OF TEMP.         0.147       AT NODE       6519   DOF 11
   INSTANCE: NDBR6                                                                           
 LARGEST CORRECTION TO TEMP.       -1.372E-02   AT NODE      11704   DOF 11
   INSTANCE: NDBR6                                                                           
          THERE IS ZERO HEAT FLUX EVERYWHERE
 

 ***WARNING: THERE IS ZERO HEAT FLUX EVERYWHERE IN THE MODEL BASED ON THE 
             DEFAULT CRITERION. PLEASE CHECK THE VALUE OF THE AVERAGE HEAT FLUX 
             DURING THE CURRENT ITERATION TO VERIFY THAT THE HEAT FLUX IS SMALL 
             ENOUGH TO BE TREATED AS ZERO. IF NOT, PLEASE USE THE SOLUTION 
             CONTROLS TO RESET THE CRITERION FOR ZERO HEAT FLUX.

 MAXIMUM NON-PRESCRIBED INCREMENT IN TEMPERATURE IS   0.147    

 ITERATION SUMMARY FOR THE INCREMENT:   4 TOTAL ITERATIONS, OF WHICH
   0 ARE SEVERE DISCONTINUITY ITERATIONS AND  4 ARE EQUILIBRIUM ITERATIONS.

 TIME INCREMENT COMPLETED   5.55    ,  FRACTION OF STEP COMPLETED  0.990    
 STEP TIME COMPLETED        549.    ,  TOTAL TIME COMPLETED        7.749E+03


  INCREMENT   103 STARTS. ATTEMPT NUMBER  1, TIME INCREMENT   5.55    
 
	UNSYMMETRIC NEW DIRECT SPARSE SOLVER RUNNING ON
 	1 HOST x 1 MPI RANK PER HOST x 6 THREADS PER RANK
        NUMBER OF EQUATIONS:  168300
        NUMBER OF RHS:        1
        NUMBER OF FLOPS:      2.669e+11
        SOLVER ELAPSED TIME:  1.5s

               CONVERGENCE CHECKS FOR EQUILIBRIUM ITERATION     1


 AVERAGE FORCE                       2.95       TIME AVG. FORCE        2.81    
 LARGEST SCALED RESIDUAL FORCE      -1.69       AT NODE       2897   DOF  3
   INSTANCE: NDBR6                                                                           
  CORRESPONDING RESIDUAL FORCE      -1.69    
 LARGEST INCREMENT OF DISP.         2.738E-05   AT NODE      25888   DOF  2
   INSTANCE: NDBR6                                                                           
 LARGEST CORRECTION TO DISP.        3.293E-06   AT NODE       2991   DOF  2
   INSTANCE: NDBR6                                                                           
          FORCE     EQUILIBRIUM NOT ACHIEVED WITHIN TOLERANCE.

 AVERAGE HEAT FLUX                  1.789E-15   TIME AVG. HEAT FLUX   1.000E-02
 LARGEST RESIDUAL HEAT FLUX         2.121E-14   AT NODE      11634   DOF 11
   INSTANCE: NDBR6                                                                           
 LARGEST INCREMENT OF TEMP.         0.161       AT NODE       6519   DOF 11
   INSTANCE: NDBR6                                                                           
 LARGEST CORRECTION TO TEMP.        0.130       AT NODE       7253   DOF 11
   INSTANCE: NDBR6                                                                           
          THERE IS ZERO HEAT FLUX EVERYWHERE
 

 ***WARNING: THERE IS ZERO HEAT FLUX EVERYWHERE IN THE MODEL BASED ON THE 
             DEFAULT CRITERION. PLEASE CHECK THE VALUE OF THE AVERAGE HEAT FLUX 
             DURING THE CURRENT ITERATION TO VERIFY THAT THE HEAT FLUX IS SMALL 
             ENOUGH TO BE TREATED AS ZERO. IF NOT, PLEASE USE THE SOLUTION 
             CONTROLS TO RESET THE CRITERION FOR ZERO HEAT FLUX.
 
	UNSYMMETRIC NEW DIRECT SPARSE SOLVER RUNNING ON
 	1 HOST x 1 MPI RANK PER HOST x 6 THREADS PER RANK
        NUMBER OF EQUATIONS:  168300
        NUMBER OF RHS:        1
        NUMBER OF FLOPS:      2.669e+11
        SOLVER ELAPSED TIME:  1.6s

               CONVERGENCE CHECKS FOR EQUILIBRIUM ITERATION     2


 AVERAGE FORCE                       2.96       TIME AVG. FORCE        2.81    
 LARGEST SCALED RESIDUAL FORCE     -0.274       AT NODE      27295   DOF  3
   INSTANCE: NDBR6                                                                           
  CORRESPONDING RESIDUAL FORCE     -0.274    
 LARGEST INCREMENT OF DISP.         2.562E-05   AT NODE       5040   DOF  2
   INSTANCE: NDBR6                                                                           
 LARGEST CORRECTION TO DISP.       -1.801E-06   AT NODE       2897   DOF  2
   INSTANCE: NDBR6                                                                           
          FORCE     EQUILIBRIUM NOT ACHIEVED WITHIN TOLERANCE.

 AVERAGE HEAT FLUX                  1.786E-15   TIME AVG. HEAT FLUX   1.000E-02
 LARGEST RESIDUAL HEAT FLUX        -1.189E-14   AT NODE      11634   DOF 11
   INSTANCE: NDBR6                                                                           
 LARGEST INCREMENT OF TEMP.         0.162       AT NODE       6519   DOF 11
   INSTANCE: NDBR6                                                                           
 LARGEST CORRECTION TO TEMP.        3.994E-02   AT NODE      11634   DOF 11
   INSTANCE: NDBR6                                                                           
          THERE IS ZERO HEAT FLUX EVERYWHERE
 

 ***WARNING: THERE IS ZERO HEAT FLUX EVERYWHERE IN THE MODEL BASED ON THE 
             DEFAULT CRITERION. PLEASE CHECK THE VALUE OF THE AVERAGE HEAT FLUX 
             DURING THE CURRENT ITERATION TO VERIFY THAT THE HEAT FLUX IS SMALL 
             ENOUGH TO BE TREATED AS ZERO. IF NOT, PLEASE USE THE SOLUTION 
             CONTROLS TO RESET THE CRITERION FOR ZERO HEAT FLUX.
 
	UNSYMMETRIC NEW DIRECT SPARSE SOLVER RUNNING ON
 	1 HOST x 1 MPI RANK PER HOST x 6 THREADS PER RANK
        NUMBER OF EQUATIONS:  168300
        NUMBER OF RHS:        1
        NUMBER OF FLOPS:      2.669e+11
        SOLVER ELAPSED TIME:  1.7s

               CONVERGENCE CHECKS FOR EQUILIBRIUM ITERATION     3


 AVERAGE FORCE                       2.97       TIME AVG. FORCE        2.81    
 LARGEST SCALED RESIDUAL FORCE     -4.700E-02   AT NODE       8793   DOF  2
   INSTANCE: NDBR6                                                                           
  CORRESPONDING RESIDUAL FORCE     -4.700E-02
 LARGEST INCREMENT OF DISP.         2.556E-05   AT NODE       5040   DOF  2
   INSTANCE: NDBR6                                                                           
 LARGEST CORRECTION TO DISP.        2.043E-07   AT NODE       7091   DOF  3
   INSTANCE: NDBR6                                                                           
          FORCE     EQUILIBRIUM NOT ACHIEVED WITHIN TOLERANCE.

 AVERAGE HEAT FLUX                  1.784E-15   TIME AVG. HEAT FLUX   1.000E-02
 LARGEST RESIDUAL HEAT FLUX        -5.405E-15   AT NODE      16985   DOF 11
   INSTANCE: NDBR6                                                                           
 LARGEST INCREMENT OF TEMP.         0.162       AT NODE       6519   DOF 11
   INSTANCE: NDBR6                                                                           
 LARGEST CORRECTION TO TEMP.       -2.413E-02   AT NODE      11634   DOF 11
   INSTANCE: NDBR6                                                                           
          THERE IS ZERO HEAT FLUX EVERYWHERE
 

 ***WARNING: THERE IS ZERO HEAT FLUX EVERYWHERE IN THE MODEL BASED ON THE 
             DEFAULT CRITERION. PLEASE CHECK THE VALUE OF THE AVERAGE HEAT FLUX 
             DURING THE CURRENT ITERATION TO VERIFY THAT THE HEAT FLUX IS SMALL 
             ENOUGH TO BE TREATED AS ZERO. IF NOT, PLEASE USE THE SOLUTION 
             CONTROLS TO RESET THE CRITERION FOR ZERO HEAT FLUX.
 
	UNSYMMETRIC NEW DIRECT SPARSE SOLVER RUNNING ON
 	1 HOST x 1 MPI RANK PER HOST x 6 THREADS PER RANK
        NUMBER OF EQUATIONS:  168300
        NUMBER OF RHS:        1
        NUMBER OF FLOPS:      2.669e+11
        SOLVER ELAPSED TIME:  1.6s

               CONVERGENCE CHECKS FOR EQUILIBRIUM ITERATION     4


 AVERAGE FORCE                       2.97       TIME AVG. FORCE        2.81    
 LARGEST SCALED RESIDUAL FORCE     -2.970E-03   AT NODE       3443   DOF  3
   INSTANCE: NDBR6                                                                           
  CORRESPONDING RESIDUAL FORCE     -2.970E-03
 LARGEST INCREMENT OF DISP.         2.555E-05   AT NODE       5040   DOF  2
   INSTANCE: NDBR6                                                                           
 LARGEST CORRECTION TO DISP.        2.032E-08   AT NODE       7093   DOF  3
   INSTANCE: NDBR6                                                                           
          THE FORCE     EQUILIBRIUM EQUATIONS HAVE CONVERGED

 AVERAGE HEAT FLUX                  1.784E-15   TIME AVG. HEAT FLUX   1.000E-02
 LARGEST RESIDUAL HEAT FLUX         3.898E-17   AT NODE      11656   DOF 11
   INSTANCE: NDBR6                                                                           
 LARGEST INCREMENT OF TEMP.         0.162       AT NODE       6519   DOF 11
   INSTANCE: NDBR6                                                                           
 LARGEST CORRECTION TO TEMP.       -1.082E-02   AT NODE      16985   DOF 11
   INSTANCE: NDBR6                                                                           
          THERE IS ZERO HEAT FLUX EVERYWHERE
 

 ***WARNING: THERE IS ZERO HEAT FLUX EVERYWHERE IN THE MODEL BASED ON THE 
             DEFAULT CRITERION. PLEASE CHECK THE VALUE OF THE AVERAGE HEAT FLUX 
             DURING THE CURRENT ITERATION TO VERIFY THAT THE HEAT FLUX IS SMALL 
             ENOUGH TO BE TREATED AS ZERO. IF NOT, PLEASE USE THE SOLUTION 
             CONTROLS TO RESET THE CRITERION FOR ZERO HEAT FLUX.

 MAXIMUM NON-PRESCRIBED INCREMENT IN TEMPERATURE IS   0.162    

 ITERATION SUMMARY FOR THE INCREMENT:   4 TOTAL ITERATIONS, OF WHICH
   0 ARE SEVERE DISCONTINUITY ITERATIONS AND  4 ARE EQUILIBRIUM ITERATIONS.

 TIME INCREMENT COMPLETED   5.55    ,  FRACTION OF STEP COMPLETED   1.00    
 STEP TIME COMPLETED        555.    ,  TOTAL TIME COMPLETED        7.755E+03


          THE ANALYSIS HAS BEEN COMPLETED



     ANALYSIS SUMMARY:
     TOTAL OF        108  INCREMENTS
                       0  CUTBACKS IN AUTOMATIC INCREMENTATION
                     222  ITERATIONS INCLUDING CONTACT ITERATIONS IF PRESENT
                     222  PASSES THROUGH THE EQUATION SOLVER OF WHICH 
                     222  INVOLVE MATRIX DECOMPOSITION, INCLUDING
                       0  DECOMPOSITION(S) OF THE MASS MATRIX
                       1  REORDERING OF EQUATIONS TO MINIMIZE WAVEFRONT
                       0  ADDITIONAL RESIDUAL EVALUATIONS FOR LINE SEARCHES
                       0  ADDITIONAL OPERATOR EVALUATIONS FOR LINE SEARCHES
                       6  WARNING MESSAGES DURING USER INPUT PROCESSING
                 6593375  WARNING MESSAGES DURING ANALYSIS
                 6593153  ANALYSIS WARNINGS ARE NUMERICAL PROBLEM MESSAGES
                       0  ANALYSIS WARNINGS ARE NEGATIVE EIGENVALUE MESSAGES
                       0  ERROR MESSAGES



     JOB TIME SUMMARY
       USER TIME (SEC)      =     1.77E+03
       SYSTEM TIME (SEC)    =     1.66E+02
       TOTAL CPU TIME (SEC) =     1.93E+03
       WALLCLOCK TIME (SEC) =          982
       MEMORY PEAK (GB)     =            1
