*HEADING
3-point seatbelt model
*parameter
 time_analysis    = 0.0215
 mass_point                      = 1.e-5
 mass_rot                        = 1.e-5
*Preprint, model=yes, history=yes
**
*NODE, NSET=AllNodes
    922028,  1599.322       ,  -504.0         ,  664.8166       
    922031,  1624.769       ,  -507.537       ,  653.1889       
    922034,  1645.026       ,  -512.5         ,  632.3413       
    922040,  1649.442       ,  -508.0         ,  566.1462       
    922042,  1651.023       ,  -510.204       ,  610.7816       
    922059,  1634.111       ,  -500.185       ,  507.6158       
    922060,  1642.696       ,  -504.225       ,  536.598        
    922065,  1565.857       ,  -474.651       ,  306.1219       
    922108,  1642.446       ,  -395.718       ,  713.6676       
    922125,  1438.784       ,  -363.477       ,  610.6005       
    922131,  1416.945       ,  -396.869       ,  555.9081       
    922132,  1422.494       ,  -398.721       ,  577.1931       
    922133,  1429.854       ,  -398.929       ,  597.9077       
    922134,  1438.077       ,  -397.937       ,  618.4214       
    922149,  1543.225       ,  -429.792       ,  697.3855       
    922162,  1634.258       ,  -392.73        ,  726.6667       
    922163,  1592.056       ,  -412.04        ,  716.6816       
    922164,  1574.887       ,  -414.387       ,  715.9009       
    922165,  1554.683       ,  -413.477       ,  715.3752       
    922168,  1613.519       ,  -404.975       ,  720.1178       
** ... 1113 like lines cut
*System
** 0.0, 0.0, -50.0
 -9.0, 0.0, -154.1
*Node
 8023972,    1.097660e+003,   -5.083003e+002,    2.436823e+002
 8023973,    1.530385e+003,   -5.083003e+002,    1.502762e+002
 8023975,    1.097660e+003,   -2.217004e+002,    2.436823e+002
 8023976,    1.530385e+003,   -2.217004e+002,    1.502762e+002
*System
 3.0, 0.0, -34.7
*Node
98023972,    1.097660e+003,   -5.083003e+002,    2.436823e+002
98023973,    1.530385e+003,   -5.083003e+002,    1.502762e+002
98023975,    1.097660e+003,   -2.217004e+002,    2.436823e+002
98023976,    1.530385e+003,   -2.217004e+002,    1.502762e+002
*Element, type=C3D8R, elset=Cushion
 9888888, 8023972, 8023973, 8023976, 8023975, 98023972,
   98023973, 98023976, 98023975
*Solid section, elset=Cushion, material=Foam, controls=SolidControls
*System
 0.0, 0.0, 0.0
*NSET, NSET=CUSHION_BOTTOM
8023972, 8023973, 8023976, 8023975
*BOUNDARY
CUSHION_BOTTOM, 1,3
**
**----------------------------------------------------------------------
*ELEMENT,TYPE=S3RS,ELSET=door_side
   8301065,   8301233,   8301287,   8301290
   8301066,   8301229,   8301224,   8301288
   8301067,   8301230,   8301286,   8301233
   8301068,   8301231,   8301230,   8301291
   8301069,   8301241,   8301285,   8301225
   8301070,   8301227,   8301193,   8301244
   8301071,   8301183,   8301255,   8301253
   8301072,   8301185,   8301184,   8301246
   8301073,   8301239,   8301247,   8301240
*ELEMENT,TYPE=S3RS,ELSET=elastic_transition_in_rigid_upper_torso
   9889322,    922588,  98024261,  98024263
   9889297,  98024251,  98024249,    922307
*ELEMENT,TYPE=M3D3,ELSET=belt_elements2
   8300057,   8300261,   8300247,   8300262
   8300058,   8300262,   8300247,   8300265
   8300059,   8300248,   8300313,   8300312
   8300060,   8300248,   8300312,   8300314
   8300061,   8300315,   8300253,   8300316
   8300062,   8300316,   8300253,   8300319
   8300063,   8300254,   8300349,   8300348
   8300064,   8300254,   8300348,   8300350
*ELEMENT,TYPE=SFM3D3,ELSET=upper_torso
   9889889,  98024285,  98024695,  98024284
   9889848,  98024671,    922028,  98024681
   9889782,  98024664,  98024374,  98024375
   9889847,  98024375,  98024664,  98024667
   9889888,  98024694,  98024281,  98024282
   9889886,    922465,    922459,  98024699
   9889887,    922162,    922168,  98024690
   9889818,    922028,  98024363,  98024364
   9889865,    922034,    922031,  98024675
   9889864,    922034,  98024675,    922042
*ELEMENT,TYPE=SFM3D3,ELSET=lower_torso
    924014,    924020,    924019,    924018
    924015,    924023,    924022,    924021
    924016,    924031,    924030,    924029
    924017,    924035,    924034,    924033
    924018,    924038,    924037,    924036
    924019,    924041,    924040,    924039
    924020,    924044,    924043,    924042
    924170,    924033,    924034,    924032
    924174,    924026,    924115,    924116
    924188,    924215,    924216,    924217
    924189,    924218,    924219,    924220
    924190,    924226,    924227,    924228
    924191,    924230,    924231,    924232
    924192,    924233,    924234,    924235
    924193,    924236,    924237,    924238
    924194,    924239,    924240,    924241
   9889062,    924346,  98024099,  98024095
    924344,    924229,    924231,    924230
    924348,    924313,    924312,    924223
   9889063,  98024091,    924292,    924289
** ... 45 like lines cut
*ELEMENT,TYPE=S4RS,ELSET=door_side
   8301074,   8301222,   8301223,   8301224,   8301229
   8301075,   8301194,   8301286,   8301230,   8301231
   8301076,   8301291,   8301247,   8301239,   8301231
   8301077,   8301222,   8301229,   8301291,   8301290
   8301078,   8301231,   8301239,   8301248,   8301194
   8301079,   8301288,   8301247,   8301291,   8301229
   8301080,   8301244,   8301243,   8301226,   8301227
   8301081,   8301243,   8301242,   8301225,   8301226
   8301082,   8301225,   8301242,   8301232,   8301241
   8301083,   8301233,   8301290,   8301291,   8301230
   8301084,   8301244,   8301193,   8301283,   8301245
   8301085,   8301243,   8301244,   8301245,   8301249
   8301086,   8301250,   8301245,   8301283,   8301284
   8301087,   8301249,   8301251,   8301242,   8301243
   8301088,   8301252,   8301249,   8301245,   8301250
   8301089,   8301284,   8301182,   8301235,   8301250
   8301090,   8301232,   8301242,   8301251,   8301253
   8301091,   8301254,   8301251,   8301249,   8301252
   8301092,   8301250,   8301235,   8301236,   8301252
   8301093,   8301253,   8301255,   8301228,   8301232
** ... 12 like lines cut
*ELEMENT,TYPE=S4RS,ELSET=elastic_transition_in_rigid_upper_torso
   9889302,  98024253,  98024254,    922272,    922282
   9889303,    922266,    922318,  98024251,  98024252
   9889304,    922313,    922289,  98024255,  98024252
   9889305,    922565,    922272,  98024254,  98024256
   9889306,    922279,    922278,  98024254,  98024253
   9889307,  98024252,  98024255,    922286,    922266
   9889308,    922289,    922288,  98024257,  98024255
   9889309,  98024256,  98024254,    922278,    922563
   9889310,  98024255,  98024257,    922257,    922286
   9889311,    922591,    922565,  98024256,  98024259
   9889312,    922288,    922190,  98024258,  98024257
   9889313,  98024257,  98024258,    922256,    922257
   9889314,  98024259,  98024256,    922563,    922599
   9889315,  98024260,  98024258,    922190,    922189
   9889316,    922587,    922591,  98024259,  98024261
   9889317,    922255,    922256,  98024258,  98024260
   9889391,  98024298,    922188,    922187,  98024299
   9889319,  98024261,  98024259,    922599,  98024263
   9889320,    922581,    922587,  98024261,    922588
   9889392,    922485,    922486,  98024274,  98024300
** ... 39 like lines cut
*ELEMENT,TYPE=M3D4R,ELSET=belt_elements1
   8300001,   8300261,   8300262,   8300263,   8300264
   8300002,   8300262,   8300265,   8300266,   8300263
   8300003,   8300264,   8300263,   8300267,   8300268
   8300004,   8300263,   8300266,   8300269,   8300267
   8300005,   8300268,   8300267,   8300270,   8300271
   8300006,   8300267,   8300269,   8300272,   8300270
   8300007,   8300271,   8300270,   8300273,   8300274
   8300008,   8300270,   8300272,   8300275,   8300273
   8300009,   8300274,   8300273,   8300276,   8300277
   8300010,   8300273,   8300275,   8300278,   8300276
   8300011,   8300277,   8300276,   8300279,   8300280
   8300012,   8300276,   8300278,   8300281,   8300279
   8300013,   8300280,   8300279,   8300282,   8300283
   8300014,   8300279,   8300281,   8300284,   8300282
   8300015,   8300283,   8300282,   8300285,   8300286
   8300016,   8300282,   8300284,   8300287,   8300285
   8300017,   8300286,   8300285,   8300288,   8300289
   8300018,   8300285,   8300287,   8300290,   8300288
   8300019,   8300289,   8300288,   8300291,   8300292
   8300020,   8300288,   8300290,   8300293,   8300291
** ... 36 like lines cut
*ELEMENT,TYPE=SFM3D4R,ELSET=rigid_sternum
    922202,    922133,    922132,    922256,    922255
    922204,    922132,    922131,    922257,    922256
   9889372,    922279,    922285,  98024289,    922278
   9889373,    922285,    922271,  98024290,  98024289
   9889374,    922278,  98024289,    922566,    922563
    922234,    922131,    922271,    922286,    922257
    922235,    922271,    922285,    922266,    922286
    922242,    922285,    922279,    922318,    922266
   9889375,  98024291,  98024290,    922271,    922131
   9889376,  98024289,  98024290,    922557,    922566
   9889377,  98024291,    922131,    922132,  98024292
   9889378,    922428,    922557,  98024290,  98024291
    922481,    922547,    922429,    922430,    922546
    922483,    922548,    922428,    922429,    922547
   9889379,  98024292,    922132,    922133,  98024293
   9889381,    922428,  98024291,  98024292,    922429
   9889383,    922429,  98024292,  98024293,    922430
    922513,    922567,    922557,    922428,    922548
    922514,    922552,    922566,    922557,    922567
    922521,    922599,    922563,    922566,    922552
*ELEMENT,TYPE=SFM3D4R,ELSET=upper_torso
   9889885,  98024693,  98024694,  98024281,    922165
   9889853,  98024381,  98024335,  98024336,  98024382
   9889875,  98024703,  98024704,  98024695,  98024696
   9889921,  98024478,  98024381,  98024382,  98024480
   9889851,  98024365,  98024681,    922201,  98024414
   9889849,  98024681,    922201,  98024668,  98024671
   9889844,  98024378,  98024377,    922059,  98024654
   9889843,  98024379,  98024378,  98024654,  98024656
   9889876,  98024702,  98024703,  98024696,  98024697
   9889842,  98024380,  98024379,  98024656,  98024652
   9889841,  98024673,  98024675,  98024671,  98024670
   9889840,  98024674,  98024673,  98024670,  98024669
   9889877,  98024702,  98024697,  98024698,  98024701
   9889839,  98024660,    922042,  98024675,  98024673
   9889838,    922040,  98024660,  98024673,  98024674
   9889837,  98024675,    922031,    922028,  98024671
   9889743,  98024618,  98024625,  98024627,  98024617
   9889744,  98024617,  98024627,  98024355,    922328
   9889745,  98024625,  98024626,  98024628,  98024627
   9889746,  98024627,  98024628,  98024356,  98024355
** ... 359 like lines cut
*ELEMENT,TYPE=SFM3D4R,ELSET=lower_torso
   9889061,  98024096,  98024090,  98024093,  98024098
   9889861,  98024687,  98024688,    924113,    924037
   9889860,  98024688,  98024689,    924121,    924113
    924001,    924012,    924014,    924015,    924013
    924002,    924014,    924016,    924017,    924015
    924003,    924016,    924018,    924019,    924017
    924004,    924020,    924021,    924022,    924019
    924005,    924035,    924036,    924037,    924034
    924007,    924041,    924042,    924043,    924040
    924008,    924044,    924045,    924046,    924043
    924009,    924045,    924047,    924048,    924046
    924010,    924050,    924010,    924011,    924051
    924011,    924116,    924022,    924023,    924026
    924012,    924030,    924028,    924027,    924029
    924013,    924034,    924030,    924031,    924032
    924022,    924055,    924052,    924053,    924056
    924023,    924057,    924054,    924055,    924058
    924024,    924058,    924055,    924056,    924059
    924025,    924060,    924057,    924058,    924061
    924026,    924061,    924058,    924059,    924062
** ... 416 like lines cut
**------------------------------------------------
**
**   connectors to model sternum compliance
**
*ELEMENT, TYPE=CONN3D2, ELSET=sternum_spring_1
  922601,   922600,   922546
*CONNECTOR SECTION, ELSET=sternum_spring_1, BEHAVIOR=sternum_spring_behavior
CARTESIAN, CARDAN
sternum_spring_1-Orientation,
**
*ELEMENT, TYPE=CONN3D2, ELSET=sternum_spring_2
  922602,   922601,   922599
*CONNECTOR SECTION, ELSET=sternum_spring_2, BEHAVIOR=sternum_spring_behavior
CARTESIAN, CARDAN
sternum_spring_2-Orientation,
**
*ELEMENT, TYPE=CONN3D2, ELSET=sternum_spring_3
  922603,   922602,   922255
*CONNECTOR SECTION, ELSET=sternum_spring_3, BEHAVIOR=sternum_spring_behavior
CARTESIAN, CARDAN
sternum_spring_3-Orientation,
**
*ELEMENT, TYPE=CONN3D2, ELSET=sternum_spring_4
  922604,   922603,   922318
*CONNECTOR SECTION, ELSET=sternum_spring_4, BEHAVIOR=sternum_spring_behavior
CARTESIAN, CARDAN
sternum_spring_4-Orientation,
**
*CONNECTOR BEHAVIOR, NAME=sternum_spring_behavior
*CONNECTOR ELASTICITY, COMPONENT=1, NONLINEAR
-9.1000e+002, -2.2000e+001
 0.0000e+000,  0.0000e+000
 1.5000e+004,  1.0000e+002
*CONNECTOR DAMPING, COMPONENT=1, NONLINEAR
-4.0000e+006, -1.0000e+007
 4.0000e+006,  1.0000e+007
*CONNECTOR ELASTICITY, COMPONENT=2, NONLINEAR
-3.0000e+004, -1.0000e+002
 0.0000e+000,  0.0000e+000
 3.0000e+004,  1.0000e+002
*CONNECTOR DAMPING, COMPONENT=2, NONLINEAR
-3.0000e+006, -1.0000e+007
 3.0000e+006,  1.0000e+007
*CONNECTOR ELASTICITY, COMPONENT=3, NONLINEAR
-3.0000e+004, -1.0000e+002
 0.0000e+000,  0.0000e+000
 3.0000e+004,  1.0000e+002
*CONNECTOR DAMPING, COMPONENT=3, NONLINEAR
-3.0000e+006, -1.0000e+007
 3.0000e+006,  1.0000e+007
*CONNECTOR ELASTICITY, COMPONENT=4, NONLINEAR
-1.0000e+011, -1.0000e+001
 1.0000e+011,  1.0000e+001
*CONNECTOR ELASTICITY, COMPONENT=5, NONLINEAR
-1.0000e+011, -1.0000e+001
 1.0000e+011,  1.0000e+001
*CONNECTOR ELASTICITY, COMPONENT=6, NONLINEAR
-1.0000e+011, -1.0000e+001
 1.0000e+011,  1.0000e+001
**
*ORIENTATION, NAME=sternum_spring_1-Orientation
 -2.180e+002,  -1.068e+001,   9.135e+001,  -4.303e+001,  -1.550e+002,  -1.148e+002
1, 0.0
**
*ORIENTATION, NAME=sternum_spring_2-Orientation
 -2.111e+002,  -1.110e+001,   9.248e+001,   4.303e+001,  -1.550e+002,   1.148e+002
1, 0.0
**
*ORIENTATION, NAME=sternum_spring_3-Orientation
 -2.180e+002,   1.068e+001,   9.135e+001,  -4.303e+001,   1.550e+002,  -1.148e+002
1, 0.0
**
*ORIENTATION, NAME=sternum_spring_4-Orientation
 -2.111e+002,   1.110e+001,   9.248e+001,   4.303e+001,   1.550e+002,   1.148e+002
1, 0.0
**
**------------------------------------------------
*ELEMENT, TYPE=MASS, ELSET=Mass-8301106
 8301106,  8301398
*MASS, ELSET=Mass-8301106
 5.0000e-005,
**
**------------------------------------------------
*MEMBRANE SECTION, ELSET=belt_elements1, MATERIAL=ElasticPlastic-belt, CONTROLS=MembraneControls
 1.2000e+000,     3
**
*MEMBRANE SECTION, ELSET=belt_elements2, MATERIAL=ElasticPlastic-belt, CONTROLS=MembraneControls
 2.4000e+000,     5
**
*SHELL SECTION, ELSET=door_side, MATERIAL=Steel, CONTROLS=ShellControls
 3.0000e+000,     5
**
*SHELL SECTION, ELSET=elastic_transition_in_rigid_upper_torso, MATERIAL=Elastic, CONTROLS=ShellControls
 1.0000e+000,     3
**
*SURFACE SECTION, ELSET=upper_torso, DENSITY= 50.0000e-009
**
*SURFACE SECTION, ELSET=rigid_sternum, DENSITY= 50.0000e-009
**
*SURFACE SECTION, ELSET=lower_torso, DENSITY= 50.0000e-009
**
**
**
*SECTION CONTROLS, NAME=ShellControls, HOURGLASS=STIFFNESS, DRILL STIFFNESS = ON
**
*SECTION CONTROLS, NAME=SolidControls, HOURGLASS=ENHANCED
**
*SECTION CONTROLS, NAME=MembraneControls, HOURGLASS=RELAX STIFFNESS
**
**
*NSET, NSET=DoorSide-Nset
  8301222,   8301223,   8301224,   8301225,   8301229,   8301230,   8301231,   8301233
  8301239,   8301240,   8301241,   8301247,   8301285,   8301287,   8301288,   8301289
  8301290,   8301291,   8301398,   8301399
*SURFACE, TYPE=NODE, NAME=DoorSide-Surface
DoorSide-Nset,
*COUPLING, CONSTRAINT NAME=Attach-WaistSeatbelt-to-Floor, REF NODE=8301398, SURFACE=DoorSide-Surface
*KINEMATIC
1,3
*NSET, NSET=FLOOR_NODES, GENERATE
8301182,8301185,1
8301234,8301238,1
8301242,8301246,1
8301248,8301256,1
*NSET, NSET=FLOOR_NODES
8301193, 8301194, 8301228, 8301232, 8301283, 8301284
*BOUNDARY
FLOOR_NODES, 1,6
**
**
*MATERIAL, NAME=FOAM
*DENSITY
 0.832E-10
*ELASTIC
  25.0000,   0.3000
*CRUSHABLE FOAM, HARDENING=ISOTROPIC
 0.999950, 0.000000
*CRUSHABLE FOAM HARDENING
   0.1659,   0.0000
   0.2805,   0.0206
   0.3597,   0.0417
   0.4308,   0.0632
   0.4908,   0.0852
   0.5442,   0.1076
   0.5908,   0.1306
   0.6224,   0.1542
   0.6540,   0.1783
   0.6724,   0.2029
   0.6921,   0.2283
   0.7101,   0.2542
   0.7231,   0.2809
   0.7294,   0.3083
   0.7411,   0.3365
   0.7453,   0.3655
   0.7560,   0.3953
   0.7633,   0.4261
   0.7685,   0.4578
   0.7721,   0.4907
** ... 21 like lines cut
*RATE DEPENDENT, TYPE=POWER LAW
4867.0000,   4.3380
***MATERIAL, NAME=Null-80084
***DENSITY
** 1.000000e-015,
***ELASTIC
** 1.000000e-006,  3.000000e-001
**
**
*MATERIAL, NAME=ElasticPlastic-belt
*DENSITY
 1.050000e-009,
*ELASTIC
 1.700000e+004,  3.000000e-001
*PLASTIC, RATE=0.0000e+000
 1.0500e+001,  0.0000e+000
 3.8500e+001,  8.9000e-003
 5.5200e+001,  1.4800e-002
 7.2900e+001,  2.5600e-002
 9.4700e+001,  4.2100e-002
 1.1500e+002,  5.7300e-002
 1.4000e+002,  7.0400e-002
 1.6000e+002,  8.0000e-002
 1.8560e+002,  9.0000e-002
 2.1730e+002,  1.0000e-001
 2.6000e+002,  1.1000e-001
 5.0000e+004,  1.0000e+001
**
*MATERIAL, NAME=Steel
*DENSITY
 7.820000e-009,
*ELASTIC
 207.0E3, 0.3
*PLASTIC
 700.0,  0.0
**
*MATERIAL, NAME=Elastic
*DENSITY
 1.200000e-009,
*ELASTIC
 1.000000e+003,  3.000000e-001
**
**--------------- Make the lower & upper torso rigid ---------
** Note: the lower & upper toso are made with SFM elements so
**       they have to be constrained
**
*Elset, elset=Rigid_Torso
lower_torso, upper_torso,
*Nset, nset=Rigid_uppertorso_TieNset
 922600, 922601, 922602, 922603
*Node, nset=Rigid_uppertorso_RefNode
 9999993, 1494.800, -364.703, 391.207
*Node, nset=Rigid_lowertorso_RefNode
 9999994, 1494.800, -364.703, 391.207
*Rigid body, Elset=upper_torso, Tie Nset=Rigid_uppertorso_TieNset, Ref Node=9999993
*Rigid body, Elset=lower_torso, Ref Node=9999994
**------------------------------------------------
** Rigid connector between the lower and upper torso
*Element, type=CONN3D2, Elset=Connector_uppertorso_lowertorso
 9999993, 9999993, 9999994
*Connector section, elset=Connector_uppertorso_lowertorso
Beam
*Orientation, name=Global
1.0, 0.0, 0.0, 0.0, 1.0, 0.0
3
*Orientation, name=Hinge_about_GlobalX
1.0, 0.0, 0.0, 0.0, 1.0, 0.0
3
*Orientation, name=LocalZ_Aligned_GlobalX
0,0,1, 0,-1,0
3,0
**------------------------------------------------
**** Add 50.0 Kg mass to the torso
***Element, type=Mass, Elset=Rigid_Torso_Mass
** 9999991, 9999999
***Mass, elset=Rigid_Torso_Mass
** 0.05,
***Element, type=RotaryI, Elset=Rigid_Torso_Rotary
** 9999992, 9999999
***Rotary, Elset=Rigid_Torso_Rotary
** 0.01e6, 0.01e6, 0.002e6
**
*Node, nset=Rigid_Sternum_RefNode
 9999998, 0.0, 0.0, 0.0
*Rigid body, Elset=rigid_sternum, Ref Node=9999998, Position=Center of Mass
**
**--------------- Initial conditions -----------------------
*Elset, elset=moving_elements
elastic_transition_in_rigid_upper_torso,
*Nset, nset=moving_nodes, elset=moving_elements
*Nset, nset=moving_nodes
Rigid_uppertorso_RefNode,
Rigid_lowertorso_RefNode,
Rigid_Sternum_Refnode,
*Initial conditions, type=velocity
 moving_nodes, 1, -20000.0
**
**------------------------------------------------
*Surface interaction, name=Fric
*Friction
 0.3,
**
**
**----------------------------------------------------------------------
**                Seatbelt webbing segment definitions                **
**----------------------------------------------------------------------
**
***********************************************************
** ADD SLIPRING DEFINITION
**
**
**
**
*Element, Type=CONN3D2, Elset=Bpillar_Trimexit_Slipring
 8888803, 8300237, 8300243
*Connector section, Elset=Bpillar_Trimexit_Slipring, Behavior=seatbelt_behavior
 slipring,

 1.050E-9, 0,
**
*Element, Type=CONN3D2, Elset=Bpillar_Slipring_Chest
 8888804, 8300243, 8300247
*Connector section, Elset=Bpillar_Slipring_Chest, Behavior=seatbelt_behavior
 slipring,

 1.050E-9, 0,
*Element, Type=CONN3D2, Elset=Chest_Waist_Slipring
 8888805, 8300248, 8300251
*Connector section, Elset=Chest_Waist_Slipring, Behavior=seatbelt_behavior
 slipring,

 1.050E-9, 0,
 **
*Element, type=CONN3D2, Elset=Waist_Slipring_Lap
 8888806, 8300251, 8300253
*Connector section, Elset=Waist_Slipring_Lap, Behavior=seatbelt_behavior
 slipring,

 1.050E-9, 0,
**
*Element, Type=CONN3D2, Elset=Lap_Bot_Floor
 8888807, 8300254, 8301398
*Connector section, Elset=Lap_Bot_Floor, Behavior=seatbelt_behavior
 slipring,

 1.050E-9, 0,
**
*elset,elset=seatbelt
 8888802,8888803,8888804,8888805,8888806,8888807
*nset, nset=seatbelt, elset=seatbelt
**
**--------------------
**
*connector behavior, name=seatbelt_behavior
*connector  elasticity, nonlinear, comp=1
11000.0e-6, -0.12
10000.0e-6, -0.111
9000.0e-6,  -0.098
8000.0e-6,  -0.086
7000.0e-6,  -0.073
6000.0e-6,  -0.059
5000.0e-6,  -0.043
4000.0e-6,  -0.026
3000.0e-6,  -0.015
2000.0e-6,  -0.009
0.0,     0.0
2000.0,  0.009
3000.0,  0.015
4000.0,  0.026
5000.0,  0.043
6000.0,  0.059
7000.0,  0.073
8000.0,  0.086
9000.0,  0.098
10000.0, 0.111
11000.0, 0.12
**additional data points to avoid runnig out of curve
13000.0, 0.13
15000.0, 0.14
17000.0, 0.15
19000.0, 0.16
21000.0, 0.17
23000.0, 0.18
25000.0, 0.19
27000.0, 0.20
29000.0, 0.21
31000.0, 0.22
33000.0, 0.23
35000.0, 0.24
37000.0, 0.25
39000.0, 0.26
41000.0, 0.27
43000.0, 0.28
45000.0, 0.29
47000.0, 0.30
*connector damping,comp=1
1.e-1,
**--------------------
*element,type=mass,elset=mass
24001,8300237
24002,8300243
**
**--------------------
**
***********************************************************
** ADD BOUNDARY CONDITIONS FOR SLIPRINGS
**
**
**
**----------------------------------------------------------------------
***                        B-pillar retractor                        ***
**----------------------------------------------------------------------
**
*parameter
 retra_lock_belt_spooled_out = 10.0
 retra_lock_belt_vel         = 542.0
 retractor_preload            =-10.0
**
*node
**retractor_B_pillar additional nodes
10111,  1.911771e+003,   -7.337330e+002,    2.367407e+002
10011,  1.911771e+003,   -7.337330e+002,    2.367407e+002
**10001,  1.911771e+003,   -7.337330e+002,    2.367407e+002
**
**------------------
**
*element, type=conn3d2,elset=retractor_spool_effect
52002,10111,10011
*connector section, elset=retractor_spool_effect,behavior=retractor_spool_effect_beh
hinge,
Hinge_about_GlobalX,
*connector behavior, name=retractor_spool_effect_beh
*connector elasticity, comp=4
450000,
*connector plasticity,comp=4
*connector hardening
150.0,   0.0
150.0,   4.0
150.0,   32.0
1500.0,  55.0
3500.0,  72.0
3550.0,  84.0
3300.0,  97.0
3450.0,  108.0
3250.0,  134.0
6000.0,  150.0
20000.0, 170.0
200000.0,300.0
**
**------------------
**
*element, type=conn3d2,elset=retractor_lock
52003,10011,8300228
*connector section, elset=retractor_lock,behavior=retractor_lock_beh
hinge,
Hinge_about_GlobalX,
*connector behavior, name=retractor_lock_beh
*connector elasticity, comp=4
1.e-3
*connector damping, comp=4
3.e-2
***********************************************************
** ADD CONNECTOR LOCK DEFINITION
**
**
**------------------
**
*element, type=conn3d2,elset=retractor_preload
52004,10111,8300228
*connector section, elset=retractor_preload, behavior=retractor_preload_beh
hinge,
Hinge_about_GlobalX,
*connector behavior, name=retractor_preload_beh
*connector damping,component=4
 3.e-2
**
**------------------
**
***********************************************************
** ADD RETRACTOR (FLOW-CONVERTER) DEFINITION
**
**
**
**-------------------
*elset,elset=retractor
52002,52003,52004,52005
*nset,nset=retractor,elset=retractor
**
*ELEMENT, TYPE=RotaryI, ELSET=rotary
34111, 10111
34011, 10011
34001, 8300228
*ELEMENT, TYPE=mass, ELSET=mass
44111, 10111
44011, 10011
44001, 8300228
**
***********************************************************
** ADD BOUNDARY CONDITIONS FOR RETRACTOR DEVICE
**
**
**
**----------------------------------------------------------------------
**                           PRETENSIONER                             **
**----------------------------------------------------------------------
**
*Parameter
 stiff_pretensioner              = 460000.0
 pretensioner_pull_velocity      = 10000.0
 pretensioner_time_start         = time_analysis*0.03
 pretensioner_time_full          = pretensioner_time_start + 0.008
 pretensioner_time_end           = pretensioner_time_full  + 0.008
 pretensioner_time_end_preload   = time_analysis*0.1
 mass_pretens_cable              = 1.050E-09
*amplitude, name=pretensioner_amp,definition=smooth
0,0, <pretensioner_time_start>,0.0, <pretensioner_time_full>,1.0,  <pretensioner_time_end>,0.0,
*amplitude,name=preload_amp,definition=smooth
0,0,<pretensioner_time_end_preload>,1.0, 1.0,1.0
**------------------
*node
10110, 1.498978e+003,   -1.419992e+002,    5.412967e+001
**10010, 1.498978e+003,   -1.419992e+002,    5.412967e+001
**------------------
***********************************************************
** ADD PRETENSIONER SPOOL DEFINITION
**
**
**------------------
** equate the flow dof on node 8300357  with the rotational dof in
** the first additional preten related node 10010 (dof 4)
*element,type=conn3d2,elset=pretensioner_flow_converter
3002,10110,8300357
*connector section,elset=pretensioner_flow_converter
retractor,
localZ_aligned_globalX,
-1.0,
**--------------------
*Element, Type=CONN3D2, Elset=pretensioner_cable
 3003, 8300351, 8300357
*connector section,elset=pretensioner_cable, behavior=pretensioner_cable_beh
 slipring,

 <mass_pretens_cable>, 0, 1.00, 1.00
*connector behavior, name=pretensioner_cable_beh
*connector elasticity,comp=1
 <stiff_pretensioner>,
**-------------------
*ELEMENT, TYPE=RotaryI, ELSET=rotary
**14001, 10010
14001, 10110
14002, 8300357
14003, 8300351
*rotary inertia, ELSET=rotary
<mass_rot>,<mass_rot>,<mass_rot>
*ELEMENT, TYPE=mass, ELSET=mass
14004, 8300357
14005, 10110
*MASS, ELSET=MASS
<mass_point>,
**-------------------
** additional node required to separate the material flows in
** the seatbelt itself and the pretensioner
*MPC
 PIN, 8300351, 8300251
**
**-------------------
**
***********************************************************
** ADD BOUNDARY CONDITIONS FOR PRETENSIONER
**
**
**--------------------
*elset,elset=pretensioner
3001,3002,3003
*nset, nset=pretensioner, elset=pretensioner
**
**
**
**----------------------------------------------------------------------
*nset,nset=seatbelt_related
 seatbelt,pretensioner,retractor,Rigid_uppertorso_RefNode,Rigid_lowertorso_RefNode
*parameter
 time_fwd         = time_analysis*0.4
 time_bwd         = time_analysis*0.6
*amplitude,name=up_down_bc,definition=smooth
 0,1,  <time_fwd>,1,  <time_bwd>,-1,  <time_analysis>,-1
**--------------------
**
*SURFACE, NAME=UPPER_TORSO_SURFACE
elastic_transition_in_rigid_upper_torso,
upper_torso,
rigid_sternum,
*SURFACE, NAME=LOWER_TORSO_SURFACE
lower_torso,
**
************************************************************************
*** QA SETS
**
*elset,elset=QA_TEST_seatbelt
 8888802,8888803,8888804,8888805,8888806,8888807
*elset,elset=QA_TEST_pretensioner
3001,3002,3003
*elset,elset=QA_TEST_retractor
52002,52003,52004,52005
**
*filter, type=butterworth, name=sae60
100.0,
**----------------------------------------------------------------------
**
*STEP,nlgeom=yes
*DYNAMIC, EXPLICIT, ELEMENT BY ELEMENT
,<time_analysis>
**
*VARIABLE MASS SCALING, TYPE=BELOW MIN, DT=1.0E-6, FREQUENCY=5
**
*DLOAD
, GRAV, 9810.0, 0.0, 0.0, -1.0
**---------------------------
**
** General contact
**
*CONTACT
*CONTACT INCLUSIONS, ALL ELEMENT BASED
*Surface property assignment, property=feature edge criteria
 , PERIMETER EDGES
UPPER_TORSO_SURFACE, ALL EDGES
LOWER_TORSO_SURFACE, ALL EDGES
*Contact property assignment
 , , Fric
*Contact controls assignment, type = ENHANCED EDGE TRACKING
*Contact Exclusion
UPPER_TORSO_SURFACE, LOWER_TORSO_SURFACE
**
**---------------------------
**
** pretensioner pull-in
**
***********************************************************
** ADD CONNECTOR MOTION DEFINITION FOR PRETENSIONER SPOOL
**
**
**
** retractor preload
**
*connector load,amplitude=preload_amp
retractor_preload,4, <retractor_preload>
**
**---------------------------
**
** Output requests
**
*OUTPUT, FIELD, NUMBER INTERVAL=100
*NODE OUTPUT
U, V
*ELEMENT OUTPUT
S, LE
*CONTACT OUTPUT
CFORCE,
**
*OUTPUT,HISTORY, TIME INTERVAL=1.e-5
*NODE OUTPUT,NSET=seatbelt_related
U,V,RF,COORD
*ELEMENT OUTPUT,ELSET=seatbelt
CTF,CEF,CU,CCU,CRF,CP,CV,CVF
*ELEMENT OUTPUT,ELSET=pretensioner
CTF,CEF,CU,CCU,CRF,CP,CV,CVF
*ELEMENT OUTPUT,ELSET=retractor
CTF,CEF,CU,CCU,CRF,CP,CV,CVF,CUP,CUPEQ,CUE,CCF
************************************************
*OUTPUT,HISTORY,FILTER=sae60, TIME INTERVAL=1.e-5
*ELEMENT OUTPUT,ELSET=QA_TEST_seatbelt
CTF1
*ELEMENT OUTPUT,ELSET=QA_TEST_pretensioner
CVR1
*ELEMENT OUTPUT,ELSET=QA_TEST_retractor
CCM1,CVR1, CUR1, CTM1
************************************************
*OUTPUT, HISTORY, FREQ=1
*ENERGY OUTPUT, var=ALL
*END STEP
