1

   Abaqus 2023.HF4                                  Date 29-Oct-2024   Time 12:45:19
   For use by AALTO UNIVERSITY under license from Dassault Systemes or its subsidiary.

                                                                                 
                                                                                 
 STEP    1     INCREMENT     1     STEP TIME    0.00    


                        S T E P       1     C O U P L E D - T E M P E R A T U R E - D I S P L A C E M E N T   A N A L Y S I S


                                                                                          

          FIXED TIME INCREMENTS
          TIME INCREMENT IS                                    1.440E+03
          TIME PERIOD IS                                       7.200E+03

          CREEP AND SWELLING EFFECTS ARE OMITTED IN THIS STEP
          THE RATE DEPENDENCY WILL BE CONSIDERED IN THIS STEP

          CREEP AND SWELLING EFFECTS WILL BE IGNORED.

 CONVERGENCE TOLERANCE PARAMETERS FOR FORCE    
     CRITERION FOR RESIDUAL FORCE     FOR A NONLINEAR PROBLEM          5.000E-03
     CRITERION FOR DISP.    CORRECTION IN A NONLINEAR PROBLEM          1.000E-02
     INITIAL VALUE OF TIME AVERAGE FORCE                               1.000E-02
     AVERAGE FORCE     IS TIME AVERAGE FORCE    
     ALTERNATE CRIT. FOR RESIDUAL FORCE     FOR A NONLINEAR PROBLEM    2.000E-02
     CRITERION FOR ZERO FORCE     RELATIVE TO TIME AVRG. FORCE         1.000E-05
     CRITERION FOR RESIDUAL FORCE     WHEN THERE IS ZERO FLUX          1.000E-05
     CRITERION FOR DISP.    CORRECTION WHEN THERE IS ZERO FLUX         1.000E-03
     CRITERION FOR RESIDUAL FORCE     FOR A LINEAR INCREMENT           1.000E-08
     FIELD CONVERSION RATIO                                             1.00    
     CRITERION FOR ZERO FORCE     REL. TO TIME AVRG. MAX. FORCE        1.000E-05
     CRITERION FOR ZERO DISP.    RELATIVE TO CHARACTERISTIC LENGTH     1.000E-08

 CONVERGENCE TOLERANCE PARAMETERS FOR HEAT FLUX
     CRITERION FOR RESIDUAL HEAT FLUX FOR A NONLINEAR PROBLEM          5.000E-03
     CRITERION FOR TEMP.    CORRECTION IN A NONLINEAR PROBLEM          1.000E-02
     INITIAL VALUE OF TIME AVERAGE HEAT FLUX                           1.000E-02
     AVERAGE HEAT FLUX IS TIME AVERAGE HEAT FLUX
     ALTERNATE CRIT. FOR RESIDUAL HEAT FLUX FOR A NONLINEAR PROBLEM    2.000E-02
     CRITERION FOR ZERO HEAT FLUX RELATIVE TO TIME AVRG. HEAT FLUX     1.000E-05
     CRITERION FOR RESIDUAL HEAT FLUX WHEN THERE IS ZERO FLUX          1.000E-05
     CRITERION FOR TEMP.    CORRECTION WHEN THERE IS ZERO FLUX         1.000E-03
     CRITERION FOR RESIDUAL HEAT FLUX FOR A LINEAR INCREMENT           1.000E-08
     FIELD CONVERSION RATIO                                             1.00    
     CRITERION FOR ZERO HEAT FLUX REL. TO TIME AVRG. MAX. HEAT FLUX    1.000E-05

     VOLUMETRIC STRAIN COMPATIBILITY TOLERANCE FOR HYBRID SOLIDS       1.000E-05
     AXIAL STRAIN COMPATIBILITY TOLERANCE FOR HYBRID BEAMS             1.000E-05
     TRANS. SHEAR STRAIN COMPATIBILITY TOLERANCE FOR HYBRID BEAMS      1.000E-05
     SOFT CONTACT CONSTRAINT COMPATIBILITY TOLERANCE FOR P>P0          5.000E-03
     SOFT CONTACT CONSTRAINT COMPATIBILITY TOLERANCE FOR P=0.0         0.100    
     CONTACT FORCE ERROR TOLERANCE FOR CONVERT SDI=YES                 1.00    
     DISPLACEMENT COMPATIBILITY TOLERANCE FOR DCOUP ELEMENTS           1.000E-05
     ROTATION COMPATIBILITY TOLERANCE FOR DCOUP ELEMENTS               1.000E-05

 EQUILIBRIUM WILL BE CHECKED FOR SEVERE DISCONTINUITY ITERATIONS

 ITERATION CONTROL PARAMETERS:
     FIRST EQUILIBRIUM ITERATION FOR CONSECUTIVE DIVERGENCE CHECK              4
     EQUILIBRIUM ITERATION AFTER WHICH ALTERNATE RESIDUAL IS USED              9
     MAXIMUM EQUILIBRIUM ITERATIONS ALLOWED                                   16
     MAXIMUM ITERATIONS FOR SEVERE DISCONTINUITIES                            12
     GLOBAL STABILIZATION CONTROL IS NOT USED

          PRINT OF INCREMENT NUMBER, TIME, ETC., EVERY    1  INCREMENTS

     THE MAXIMUM NUMBER OF INCREMENTS IN THIS STEP IS                 1000000

          LARGE DISPLACEMENT THEORY WILL BE USED

          UNSYMMETRIC MATRIX STORAGE AND SOLUTION WILL BE USED

     LINEAR EXTRAPOLATION WILL BE USED

     CHARACTERISTIC ELEMENT LENGTH     2.261E-04

     DETAILS REGARDING ACTUAL SOLUTION WAVEFRONT REQUESTED

     DETAILED OUTPUT OF DIAGNOSTICS TO DATABASE REQUESTED

     PRINT OF INCREMENT NUMBER, TIME, ETC., TO THE MESSAGE FILE EVERY     1  INCREMENTS

     ELEMENT OPERATIONS WILL BE CARRIED OUT IN PARALLEL USING   6 THREADS ON 1 DOMAIN

     PARALLEL CONTACT TRACKING ENABLED


     COLLECTING MODEL CONSTRAINT INFORMATION FOR OVERCONSTRAINT CHECKS

     COLLECTING STEP CONSTRAINT INFORMATION FOR OVERCONSTRAINT CHECKS


  INCREMENT     1 STARTS. ATTEMPT NUMBER  1, TIME INCREMENT  1.440E+03
 
     INITIAL ELEMENT LOAD BALANCE
            DOMAIN    1     THREAD    NUMBER OF ELEMENTS
                              1            5640
                              2            5560
                              3            5648
                              4            5752
                              5            5848
                              6            5689
 
	UNSYMMETRIC NEW DIRECT SPARSE SOLVER RUNNING ON
 	1 HOST x 1 MPI RANK PER HOST x 6 THREADS PER RANK
        NUMBER OF EQUATIONS:  172632
        NUMBER OF RHS:        1
        NUMBER OF FLOPS:      1.917e+11
        SOLVER ELAPSED TIME:  4.2s

               CONVERGENCE CHECKS FOR EQUILIBRIUM ITERATION     1


 AVERAGE FORCE                       0.00       TIME AVG. FORCE       1.000E-02
 ALL FORCE     RESIDUALS ARE ZERO
 ALL DISP.    INCREMENTS ARE ZERO
 ALL CORRECTION TO DISP.    ARE ZERO
          THERE IS ZERO FORCE     EVERYWHERE

 AVERAGE HEAT FLUX                  8.191E-14   TIME AVG. HEAT FLUX   1.000E-02
 LARGEST RESIDUAL HEAT FLUX         1.336E-15   AT NODE      41201   DOF 11
   INSTANCE: SH115                                                                           
 LARGEST INCREMENT OF TEMP.          8.72       AT NODE          1   DOF 11
   INSTANCE: SH115                                                                           
 LARGEST CORRECTION TO TEMP.         8.72       AT NODE          1   DOF 11
   INSTANCE: SH115                                                                           
          THERE IS ZERO HEAT FLUX EVERYWHERE
 

 ***WARNING: THERE IS ZERO HEAT FLUX EVERYWHERE IN THE MODEL BASED ON THE 
             DEFAULT CRITERION. PLEASE CHECK THE VALUE OF THE AVERAGE HEAT FLUX 
             DURING THE CURRENT ITERATION TO VERIFY THAT THE HEAT FLUX IS SMALL 
             ENOUGH TO BE TREATED AS ZERO. IF NOT, PLEASE USE THE SOLUTION 
             CONTROLS TO RESET THE CRITERION FOR ZERO HEAT FLUX.

 ITERATION SUMMARY FOR THE INCREMENT:   1 TOTAL ITERATIONS, OF WHICH
   0 ARE SEVERE DISCONTINUITY ITERATIONS AND  1 ARE EQUILIBRIUM ITERATIONS.

 TIME INCREMENT COMPLETED  1.440E+03,  FRACTION OF STEP COMPLETED  0.200    
 STEP TIME COMPLETED       1.440E+03,  TOTAL TIME COMPLETED        1.440E+03


  INCREMENT     2 STARTS. ATTEMPT NUMBER  1, TIME INCREMENT  1.440E+03
 
	UNSYMMETRIC NEW DIRECT SPARSE SOLVER RUNNING ON
 	1 HOST x 1 MPI RANK PER HOST x 6 THREADS PER RANK
        NUMBER OF EQUATIONS:  172632
        NUMBER OF RHS:        1
        NUMBER OF FLOPS:      1.917e+11
        SOLVER ELAPSED TIME:  106s

               CONVERGENCE CHECKS FOR EQUILIBRIUM ITERATION     1


 AVERAGE FORCE                       0.00       TIME AVG. FORCE       1.000E-02
 ALL FORCE     RESIDUALS ARE ZERO
 ALL DISP.    INCREMENTS ARE ZERO
 ALL CORRECTION TO DISP.    ARE ZERO
          THERE IS ZERO FORCE     EVERYWHERE

 AVERAGE HEAT FLUX                  1.569E-14   TIME AVG. HEAT FLUX   1.000E-02
 LARGEST RESIDUAL HEAT FLUX        -2.072E-16   AT NODE      41212   DOF 11
   INSTANCE: SH115                                                                           
 LARGEST INCREMENT OF TEMP.          1.93       AT NODE        643   DOF 11
   INSTANCE: SH115                                                                           
 LARGEST CORRECTION TO TEMP.        -8.72       AT NODE          1   DOF 11
   INSTANCE: SH115                                                                           
          THERE IS ZERO HEAT FLUX EVERYWHERE
 

 ***WARNING: THERE IS ZERO HEAT FLUX EVERYWHERE IN THE MODEL BASED ON THE 
             DEFAULT CRITERION. PLEASE CHECK THE VALUE OF THE AVERAGE HEAT FLUX 
             DURING THE CURRENT ITERATION TO VERIFY THAT THE HEAT FLUX IS SMALL 
             ENOUGH TO BE TREATED AS ZERO. IF NOT, PLEASE USE THE SOLUTION 
             CONTROLS TO RESET THE CRITERION FOR ZERO HEAT FLUX.

 ITERATION SUMMARY FOR THE INCREMENT:   1 TOTAL ITERATIONS, OF WHICH
   0 ARE SEVERE DISCONTINUITY ITERATIONS AND  1 ARE EQUILIBRIUM ITERATIONS.

 TIME INCREMENT COMPLETED  1.440E+03,  FRACTION OF STEP COMPLETED  0.400    
 STEP TIME COMPLETED       2.880E+03,  TOTAL TIME COMPLETED        2.880E+03


  INCREMENT     3 STARTS. ATTEMPT NUMBER  1, TIME INCREMENT  1.440E+03
 
	UNSYMMETRIC NEW DIRECT SPARSE SOLVER RUNNING ON
 	1 HOST x 1 MPI RANK PER HOST x 6 THREADS PER RANK
        NUMBER OF EQUATIONS:  172632
        NUMBER OF RHS:        1
        NUMBER OF FLOPS:      1.917e+11
        SOLVER ELAPSED TIME:  35s

               CONVERGENCE CHECKS FOR EQUILIBRIUM ITERATION     1


 AVERAGE FORCE                       0.00       TIME AVG. FORCE       1.000E-02
 ALL FORCE     RESIDUALS ARE ZERO
 ALL DISP.    INCREMENTS ARE ZERO
 ALL CORRECTION TO DISP.    ARE ZERO
          THERE IS ZERO FORCE     EVERYWHERE

 AVERAGE HEAT FLUX                  3.556E-15   TIME AVG. HEAT FLUX   1.000E-02
 LARGEST RESIDUAL HEAT FLUX        -1.050E-17   AT NODE      42281   DOF 11
   INSTANCE: SH115                                                                           
 LARGEST INCREMENT OF TEMP.         0.535       AT NODE       1063   DOF 11
   INSTANCE: SH115                                                                           
 LARGEST CORRECTION TO TEMP.        -1.40       AT NODE        637   DOF 11
   INSTANCE: SH115                                                                           
          THERE IS ZERO HEAT FLUX EVERYWHERE
 

 ***WARNING: THERE IS ZERO HEAT FLUX EVERYWHERE IN THE MODEL BASED ON THE 
             DEFAULT CRITERION. PLEASE CHECK THE VALUE OF THE AVERAGE HEAT FLUX 
             DURING THE CURRENT ITERATION TO VERIFY THAT THE HEAT FLUX IS SMALL 
             ENOUGH TO BE TREATED AS ZERO. IF NOT, PLEASE USE THE SOLUTION 
             CONTROLS TO RESET THE CRITERION FOR ZERO HEAT FLUX.

 ITERATION SUMMARY FOR THE INCREMENT:   1 TOTAL ITERATIONS, OF WHICH
   0 ARE SEVERE DISCONTINUITY ITERATIONS AND  1 ARE EQUILIBRIUM ITERATIONS.

 TIME INCREMENT COMPLETED  1.440E+03,  FRACTION OF STEP COMPLETED  0.600    
 STEP TIME COMPLETED       4.320E+03,  TOTAL TIME COMPLETED        4.320E+03


  INCREMENT     4 STARTS. ATTEMPT NUMBER  1, TIME INCREMENT  1.440E+03
 
	UNSYMMETRIC NEW DIRECT SPARSE SOLVER RUNNING ON
 	1 HOST x 1 MPI RANK PER HOST x 6 THREADS PER RANK
        NUMBER OF EQUATIONS:  172632
        NUMBER OF RHS:        1
        NUMBER OF FLOPS:      1.917e+11
        SOLVER ELAPSED TIME:  4.3s

               CONVERGENCE CHECKS FOR EQUILIBRIUM ITERATION     1


 AVERAGE FORCE                       0.00       TIME AVG. FORCE       1.000E-02
 ALL FORCE     RESIDUALS ARE ZERO
 ALL DISP.    INCREMENTS ARE ZERO
 ALL CORRECTION TO DISP.    ARE ZERO
          THERE IS ZERO FORCE     EVERYWHERE

 AVERAGE HEAT FLUX                  8.117E-16   TIME AVG. HEAT FLUX   1.000E-02
 LARGEST RESIDUAL HEAT FLUX        -6.496E-19   AT NODE      41212   DOF 11
   INSTANCE: SH115                                                                           
 LARGEST INCREMENT OF TEMP.         0.148       AT NODE       1063   DOF 11
   INSTANCE: SH115                                                                           
 LARGEST CORRECTION TO TEMP.       -0.388       AT NODE        643   DOF 11
   INSTANCE: SH115                                                                           
          THERE IS ZERO HEAT FLUX EVERYWHERE
 

 ***WARNING: THERE IS ZERO HEAT FLUX EVERYWHERE IN THE MODEL BASED ON THE 
             DEFAULT CRITERION. PLEASE CHECK THE VALUE OF THE AVERAGE HEAT FLUX 
             DURING THE CURRENT ITERATION TO VERIFY THAT THE HEAT FLUX IS SMALL 
             ENOUGH TO BE TREATED AS ZERO. IF NOT, PLEASE USE THE SOLUTION 
             CONTROLS TO RESET THE CRITERION FOR ZERO HEAT FLUX.

 ITERATION SUMMARY FOR THE INCREMENT:   1 TOTAL ITERATIONS, OF WHICH
   0 ARE SEVERE DISCONTINUITY ITERATIONS AND  1 ARE EQUILIBRIUM ITERATIONS.

 TIME INCREMENT COMPLETED  1.440E+03,  FRACTION OF STEP COMPLETED  0.800    
 STEP TIME COMPLETED       5.760E+03,  TOTAL TIME COMPLETED        5.760E+03


  INCREMENT     5 STARTS. ATTEMPT NUMBER  1, TIME INCREMENT  1.440E+03
 
	UNSYMMETRIC NEW DIRECT SPARSE SOLVER RUNNING ON
 	1 HOST x 1 MPI RANK PER HOST x 6 THREADS PER RANK
        NUMBER OF EQUATIONS:  172632
        NUMBER OF RHS:        1
        NUMBER OF FLOPS:      1.917e+11
        SOLVER ELAPSED TIME:  4.5s

               CONVERGENCE CHECKS FOR EQUILIBRIUM ITERATION     1


 AVERAGE FORCE                       0.00       TIME AVG. FORCE       1.000E-02
 ALL FORCE     RESIDUALS ARE ZERO
 ALL DISP.    INCREMENTS ARE ZERO
 ALL CORRECTION TO DISP.    ARE ZERO
          THERE IS ZERO FORCE     EVERYWHERE

 AVERAGE HEAT FLUX                  1.873E-16   TIME AVG. HEAT FLUX   1.000E-02
 LARGEST RESIDUAL HEAT FLUX        -4.384E-20   AT NODE      42280   DOF 11
   INSTANCE: SH115                                                                           
 LARGEST INCREMENT OF TEMP.         4.208E-02   AT NODE       1063   DOF 11
   INSTANCE: SH115                                                                           
 LARGEST CORRECTION TO TEMP.       -0.106       AT NODE       1063   DOF 11
   INSTANCE: SH115                                                                           
          THERE IS ZERO HEAT FLUX EVERYWHERE
 

 ***WARNING: THERE IS ZERO HEAT FLUX EVERYWHERE IN THE MODEL BASED ON THE 
             DEFAULT CRITERION. PLEASE CHECK THE VALUE OF THE AVERAGE HEAT FLUX 
             DURING THE CURRENT ITERATION TO VERIFY THAT THE HEAT FLUX IS SMALL 
             ENOUGH TO BE TREATED AS ZERO. IF NOT, PLEASE USE THE SOLUTION 
             CONTROLS TO RESET THE CRITERION FOR ZERO HEAT FLUX.

 ITERATION SUMMARY FOR THE INCREMENT:   1 TOTAL ITERATIONS, OF WHICH
   0 ARE SEVERE DISCONTINUITY ITERATIONS AND  1 ARE EQUILIBRIUM ITERATIONS.

 TIME INCREMENT COMPLETED  1.440E+03,  FRACTION OF STEP COMPLETED   1.00    
 STEP TIME COMPLETED       7.200E+03,  TOTAL TIME COMPLETED        7.200E+03
1

   Abaqus 2023.HF4                                  Date 29-Oct-2024   Time 12:48:09
   For use by AALTO UNIVERSITY under license from Dassault Systemes or its subsidiary.

                                                                                 
                                                                                 
 STEP    2     INCREMENT     1     STEP TIME    0.00    


                        S T E P       2     C O U P L E D - T E M P E R A T U R E - D I S P L A C E M E N T   A N A L Y S I S


                                                                                          

     AUTOMATIC TIME CONTROL WITH -
          A SUGGESTED INITIAL TIME INCREMENT OF                 8.85    
          AND A TOTAL TIME PERIOD OF                            885.    
          THE MINIMUM TIME INCREMENT ALLOWED IS                1.000E-07
          THE MAXIMUM TIME INCREMENT ALLOWED IS                 8.85    

          CREEP AND SWELLING EFFECTS ARE OMITTED IN THIS STEP

     THE SIZE OF THE TIME INCREMENT IS CONTROLLED BY -
          THE TEMPERATURE CHANGE PER INCREMENT NOT EXCEEDING           1.000E+03
          THE RATE DEPENDENCY WILL BE CONSIDERED IN THIS STEP

          CREEP AND SWELLING EFFECTS WILL BE IGNORED.

 CONVERGENCE TOLERANCE PARAMETERS FOR FORCE    
     CRITERION FOR RESIDUAL FORCE     FOR A NONLINEAR PROBLEM          5.000E-03
     CRITERION FOR DISP.    CORRECTION IN A NONLINEAR PROBLEM          1.000E-02
     INIT. VALUE OF TIME AVG. FORCE     IS TIME AVG. FORCE     IN PREVIOUS STEP
     AVERAGE FORCE     IS TIME AVERAGE FORCE    
     ALTERNATE CRIT. FOR RESIDUAL FORCE     FOR A NONLINEAR PROBLEM    2.000E-02
     CRITERION FOR ZERO FORCE     RELATIVE TO TIME AVRG. FORCE         1.000E-05
     CRITERION FOR RESIDUAL FORCE     WHEN THERE IS ZERO FLUX          1.000E-05
     CRITERION FOR DISP.    CORRECTION WHEN THERE IS ZERO FLUX         1.000E-03
     CRITERION FOR RESIDUAL FORCE     FOR A LINEAR INCREMENT           1.000E-08
     FIELD CONVERSION RATIO                                             1.00    
     CRITERION FOR ZERO FORCE     REL. TO TIME AVRG. MAX. FORCE        1.000E-05
     CRITERION FOR ZERO DISP.    RELATIVE TO CHARACTERISTIC LENGTH     1.000E-08

 CONVERGENCE TOLERANCE PARAMETERS FOR HEAT FLUX
     CRITERION FOR RESIDUAL HEAT FLUX FOR A NONLINEAR PROBLEM          5.000E-03
     CRITERION FOR TEMP.    CORRECTION IN A NONLINEAR PROBLEM          1.000E-02
     INIT. VALUE OF TIME AVG. HEAT FLUX IS TIME AVG. HEAT FLUX IN PREVIOUS STEP
     AVERAGE HEAT FLUX IS TIME AVERAGE HEAT FLUX
     ALTERNATE CRIT. FOR RESIDUAL HEAT FLUX FOR A NONLINEAR PROBLEM    2.000E-02
     CRITERION FOR ZERO HEAT FLUX RELATIVE TO TIME AVRG. HEAT FLUX     1.000E-05
     CRITERION FOR RESIDUAL HEAT FLUX WHEN THERE IS ZERO FLUX          1.000E-05
     CRITERION FOR TEMP.    CORRECTION WHEN THERE IS ZERO FLUX         1.000E-03
     CRITERION FOR RESIDUAL HEAT FLUX FOR A LINEAR INCREMENT           1.000E-08
     FIELD CONVERSION RATIO                                             1.00    
     CRITERION FOR ZERO HEAT FLUX REL. TO TIME AVRG. MAX. HEAT FLUX    1.000E-05

     VOLUMETRIC STRAIN COMPATIBILITY TOLERANCE FOR HYBRID SOLIDS       1.000E-05
     AXIAL STRAIN COMPATIBILITY TOLERANCE FOR HYBRID BEAMS             1.000E-05
     TRANS. SHEAR STRAIN COMPATIBILITY TOLERANCE FOR HYBRID BEAMS      1.000E-05
     SOFT CONTACT CONSTRAINT COMPATIBILITY TOLERANCE FOR P>P0          5.000E-03
     SOFT CONTACT CONSTRAINT COMPATIBILITY TOLERANCE FOR P=0.0         0.100    
     CONTACT FORCE ERROR TOLERANCE FOR CONVERT SDI=YES                 1.00    
     DISPLACEMENT COMPATIBILITY TOLERANCE FOR DCOUP ELEMENTS           1.000E-05
     ROTATION COMPATIBILITY TOLERANCE FOR DCOUP ELEMENTS               1.000E-05

 EQUILIBRIUM WILL BE CHECKED FOR SEVERE DISCONTINUITY ITERATIONS

 TIME INCREMENTATION CONTROL PARAMETERS:
     FIRST EQUILIBRIUM ITERATION FOR CONSECUTIVE DIVERGENCE CHECK              4
     EQUILIBRIUM ITERATION AT WHICH LOG. CONVERGENCE RATE CHECK BEGINS         8
     EQUILIBRIUM ITERATION AFTER WHICH ALTERNATE RESIDUAL IS USED              9
     MAXIMUM EQUILIBRIUM ITERATIONS ALLOWED                                   16
     EQUILIBRIUM ITERATION COUNT FOR CUT-BACK IN NEXT INCREMENT               10
     MAXIMUM EQUILIB. ITERS IN TWO INCREMENTS FOR TIME INCREMENT INCREASE      4
     MAXIMUM ITERATIONS FOR SEVERE DISCONTINUITIES                            50
     MAXIMUM ATTEMPTS ALLOWED IN AN INCREMENT                                  5
     MAXIMUM DISCON. ITERS IN TWO INCREMENTS FOR TIME INCREMENT INCREASE      50
     MAXIMUM CONTACT AUGMENTATIONS FOR *SURFACE BEHAVIOR,AUGMENTED LAGRANGE   50
     CONSECUTIVE INCS MEETING TIME INTEG. TOL. FOR TIME INC. INCREASE          3
     CUT-BACK FACTOR AFTER DIVERGENCE                                 0.2500    
     CUT-BACK FACTOR FOR TOO SLOW CONVERGENCE                         0.5000    
     CUT-BACK FACTOR AFTER TOO MANY EQUILIBRIUM ITERATIONS            0.7500    
     CUT-BACK FACTOR AFTER TOO MANY SEVERE DISCONTINUITY ITERATIONS   0.2500    
     CUT-BACK FACTOR AFTER PROBLEMS IN ELEMENT ASSEMBLY               0.2500    
     INCREASE FACTOR AFTER TWO INCREMENTS THAT CONVERGE QUICKLY        1.500    
     MAX. TIME INCREMENT INCREASE FACTOR ALLOWED                       1.500    
     MAX. TIME INCREMENT INCREASE FACTOR ALLOWED (DYNAMICS)            1.250    
     MAX. TIME INCREMENT INCREASE FACTOR ALLOWED (DIFFUSION)           2.000    
     MINIMUM TIME INCREMENT RATIO FOR EXTRAPOLATION TO OCCUR          0.1000    
     CUT-BACK FACTOR WHEN TIME INTEGRATION ACCURACY TOL. EXCEEDED     0.8500    
     MAX. RATIO OF TIME INTEG. MEASURE TO TOL. FOR TIME INC. INCREASE 0.7500    
     INCREASE FACTOR FOR TIME INCREMENT WHEN POSSIBLE                 0.8000    
     MIN. TIME INC. INCREASE FACTOR IN LINEAR TRANSIENT PROBLEMS      0.9500    
     MAX. RATIO OF TIME INCREMENT TO STABILITY LIMIT                   1.000    
     FRACTION OF STABILITY LIMIT FOR NEW TIME INCREMENT               0.9500    
     TIME INCREMENT INCREASE FACTOR BEFORE A TIME POINT                1.000    
     GLOBAL STABILIZATION CONTROL IS NOT USED

          PRINT OF INCREMENT NUMBER, TIME, ETC., EVERY    1  INCREMENTS

     THE MAXIMUM NUMBER OF INCREMENTS IN THIS STEP IS                 1000000

          LARGE DISPLACEMENT THEORY WILL BE USED

          UNSYMMETRIC MATRIX STORAGE AND SOLUTION WILL BE USED

     LINEAR EXTRAPOLATION WILL BE USED

     CHARACTERISTIC ELEMENT LENGTH     2.261E-04

     DETAILS REGARDING ACTUAL SOLUTION WAVEFRONT REQUESTED

     DETAILED OUTPUT OF DIAGNOSTICS TO DATABASE REQUESTED

     PRINT OF INCREMENT NUMBER, TIME, ETC., TO THE MESSAGE FILE EVERY     1  INCREMENTS

     ELEMENT OPERATIONS WILL BE CARRIED OUT IN PARALLEL USING   6 THREADS ON 1 DOMAIN

     COLLECTING STEP CONSTRAINT INFORMATION FOR OVERCONSTRAINT CHECKS


  INCREMENT     1 STARTS. ATTEMPT NUMBER  1, TIME INCREMENT   8.85    
 
     INITIAL ELEMENT LOAD BALANCE
            DOMAIN    1     THREAD    NUMBER OF ELEMENTS
                              1            5552
                              2            5720
                              3            5657
                              4            5776
                              5            5720
                              6            5712
 
	UNSYMMETRIC NEW DIRECT SPARSE SOLVER RUNNING ON
 	1 HOST x 1 MPI RANK PER HOST x 6 THREADS PER RANK
        NUMBER OF EQUATIONS:  172632
        NUMBER OF RHS:        1
        NUMBER OF FLOPS:      1.917e+11
        SOLVER ELAPSED TIME:  1.3s

 ***WARNING: SOLVER PROBLEM.  ZERO PIVOT WHEN PROCESSING NODE 38324 INSTANCE 
             SH115 D.O.F. 11
  Typically a zero pivot is associated with an overconstraint in the model. 
 However, Abaqus was not able to identify any chains of constraints that might 
 lead to an overconstraint at this node. This suggests that the model might be 
 in fact insufficiently constrained in this particular degree of freedom. 
 Please check the constraints used in this model. 


 ***WARNING: SOLVER PROBLEM.  ZERO PIVOT WHEN PROCESSING NODE 38408 INSTANCE 
             SH115 D.O.F. 11
  Typically a zero pivot is associated with an overconstraint in the model. 
 However, Abaqus was not able to identify any chains of constraints that might 
 lead to an overconstraint at this node. This suggests that the model might be 
 in fact insufficiently constrained in this particular degree of freedom. 
 Please check the constraints used in this model. 


 ***WARNING: SOLVER PROBLEM.  ZERO PIVOT WHEN PROCESSING NODE 38569 INSTANCE 
             SH115 D.O.F. 11
  Typically a zero pivot is associated with an overconstraint in the model. 
 However, Abaqus was not able to identify any chains of constraints that might 
 lead to an overconstraint at this node. This suggests that the model might be 
 in fact insufficiently constrained in this particular degree of freedom. 
 Please check the constraints used in this model. 


 ***WARNING: SOLVER PROBLEM.  ZERO PIVOT WHEN PROCESSING NODE 38568 INSTANCE 
             SH115 D.O.F. 11
  Typically a zero pivot is associated with an overconstraint in the model. 
 However, Abaqus was not able to identify any chains of constraints that might 
 lead to an overconstraint at this node. This suggests that the model might be 
 in fact insufficiently constrained in this particular degree of freedom. 
 Please check the constraints used in this model. 


 ***WARNING: SOLVER PROBLEM.  ZERO PIVOT WHEN PROCESSING NODE 38534 INSTANCE 
             SH115 D.O.F. 11
  Typically a zero pivot is associated with an overconstraint in the model. 
 However, Abaqus was not able to identify any chains of constraints that might 
 lead to an overconstraint at this node. This suggests that the model might be 
 in fact insufficiently constrained in this particular degree of freedom. 
 Please check the constraints used in this model. 


 ***WARNING: SOLVER PROBLEM.  ZERO PIVOT WHEN PROCESSING NODE 38532 INSTANCE 
             SH115 D.O.F. 11
  Typically a zero pivot is associated with an overconstraint in the model. 
 However, Abaqus was not able to identify any chains of constraints that might 
 lead to an overconstraint at this node. This suggests that the model might be 
 in fact insufficiently constrained in this particular degree of freedom. 
 Please check the constraints used in this model. 


 ***WARNING: SOLVER PROBLEM.  ZERO PIVOT WHEN PROCESSING NODE 38482 INSTANCE 
             SH115 D.O.F. 11
  Typically a zero pivot is associated with an overconstraint in the model. 
 However, Abaqus was not able to identify any chains of constraints that might 
 lead to an overconstraint at this node. This suggests that the model might be 
 in fact insufficiently constrained in this particular degree of freedom. 
 Please check the constraints used in this model. 


 ***WARNING: SOLVER PROBLEM.  ZERO PIVOT WHEN PROCESSING NODE 40501 INSTANCE 
             SH115 D.O.F. 11
  Typically a zero pivot is associated with an overconstraint in the model. 
 However, Abaqus was not able to identify any chains of constraints that might 
 lead to an overconstraint at this node. This suggests that the model might be 
 in fact insufficiently constrained in this particular degree of freedom. 
 Please check the constraints used in this model. 


 ***WARNING: SOLVER PROBLEM.  ZERO PIVOT WHEN PROCESSING NODE 40417 INSTANCE 
             SH115 D.O.F. 11
  Typically a zero pivot is associated with an overconstraint in the model. 
 However, Abaqus was not able to identify any chains of constraints that might 
 lead to an overconstraint at this node. This suggests that the model might be 
 in fact insufficiently constrained in this particular degree of freedom. 
 Please check the constraints used in this model. 


 ***WARNING: SOLVER PROBLEM.  ZERO PIVOT WHEN PROCESSING NODE 40575 INSTANCE 
             SH115 D.O.F. 11
  Typically a zero pivot is associated with an overconstraint in the model. 
 However, Abaqus was not able to identify any chains of constraints that might 
 lead to an overconstraint at this node. This suggests that the model might be 
 in fact insufficiently constrained in this particular degree of freedom. 
 Please check the constraints used in this model. 


 ***WARNING: SOLVER PROBLEM.  ZERO PIVOT WHEN PROCESSING NODE 40625 INSTANCE 
             SH115 D.O.F. 11
  Typically a zero pivot is associated with an overconstraint in the model. 
 However, Abaqus was not able to identify any chains of constraints that might 
 lead to an overconstraint at this node. This suggests that the model might be 
 in fact insufficiently constrained in this particular degree of freedom. 
 Please check the constraints used in this model. 


 ***WARNING: SOLVER PROBLEM.  ZERO PIVOT WHEN PROCESSING NODE 40627 INSTANCE 
             SH115 D.O.F. 11
  Typically a zero pivot is associated with an overconstraint in the model. 
 However, Abaqus was not able to identify any chains of constraints that might 
 lead to an overconstraint at this node. This suggests that the model might be 
 in fact insufficiently constrained in this particular degree of freedom. 
 Please check the constraints used in this model. 


 ***WARNING: SOLVER PROBLEM.  ZERO PIVOT WHEN PROCESSING NODE 40661 INSTANCE 
             SH115 D.O.F. 11
  Typically a zero pivot is associated with an overconstraint in the model. 
 However, Abaqus was not able to identify any chains of constraints that might 
 lead to an overconstraint at this node. This suggests that the model might be 
 in fact insufficiently constrained in this particular degree of freedom. 
 Please check the constraints used in this model. 


 ***WARNING: SOLVER PROBLEM.  ZERO PIVOT WHEN PROCESSING NODE 40662 INSTANCE 
             SH115 D.O.F. 11
  Typically a zero pivot is associated with an overconstraint in the model. 
 However, Abaqus was not able to identify any chains of constraints that might 
 lead to an overconstraint at this node. This suggests that the model might be 
 in fact insufficiently constrained in this particular degree of freedom. 
 Please check the constraints used in this model. 


 ***WARNING: SOLVER PROBLEM.  ZERO PIVOT WHEN PROCESSING NODE 38316 INSTANCE 
             SH115 D.O.F. 11
  Typically a zero pivot is associated with an overconstraint in the model. 
 However, Abaqus was not able to identify any chains of constraints that might 
 lead to an overconstraint at this node. This suggests that the model might be 
 in fact insufficiently constrained in this particular degree of freedom. 
 Please check the constraints used in this model. 


 ***WARNING: SOLVER PROBLEM.  ZERO PIVOT WHEN PROCESSING NODE 38742 INSTANCE 
             SH115 D.O.F. 11
  Typically a zero pivot is associated with an overconstraint in the model. 
 However, Abaqus was not able to identify any chains of constraints that might 
 lead to an overconstraint at this node. This suggests that the model might be 
 in fact insufficiently constrained in this particular degree of freedom. 
 Please check the constraints used in this model. 


 ***WARNING: SOLVER PROBLEM.  ZERO PIVOT WHEN PROCESSING NODE 40835 INSTANCE 
             SH115 D.O.F. 11
  Typically a zero pivot is associated with an overconstraint in the model. 
 However, Abaqus was not able to identify any chains of constraints that might 
 lead to an overconstraint at this node. This suggests that the model might be 
 in fact insufficiently constrained in this particular degree of freedom. 
 Please check the constraints used in this model. 


 ***WARNING: SOLVER PROBLEM.  ZERO PIVOT WHEN PROCESSING NODE 38406 INSTANCE 
             SH115 D.O.F. 11
  Typically a zero pivot is associated with an overconstraint in the model. 
 However, Abaqus was not able to identify any chains of constraints that might 
 lead to an overconstraint at this node. This suggests that the model might be 
 in fact insufficiently constrained in this particular degree of freedom. 
 Please check the constraints used in this model. 


 ***WARNING: SOLVER PROBLEM.  ZERO PIVOT WHEN PROCESSING NODE 38481 INSTANCE 
             SH115 D.O.F. 11
  Typically a zero pivot is associated with an overconstraint in the model. 
 However, Abaqus was not able to identify any chains of constraints that might 
 lead to an overconstraint at this node. This suggests that the model might be 
 in fact insufficiently constrained in this particular degree of freedom. 
 Please check the constraints used in this model. 


 ***WARNING: SOLVER PROBLEM.  ZERO PIVOT WHEN PROCESSING NODE 38733 INSTANCE 
             SH115 D.O.F. 11
  Typically a zero pivot is associated with an overconstraint in the model. 
 However, Abaqus was not able to identify any chains of constraints that might 
 lead to an overconstraint at this node. This suggests that the model might be 
 in fact insufficiently constrained in this particular degree of freedom. 
 Please check the constraints used in this model. 


 ***WARNING: SOLVER PROBLEM.  ZERO PIVOT WHEN PROCESSING NODE 40409 INSTANCE 
             SH115 D.O.F. 11
  Typically a zero pivot is associated with an overconstraint in the model. 
 However, Abaqus was not able to identify any chains of constraints that might 
 lead to an overconstraint at this node. This suggests that the model might be 
 in fact insufficiently constrained in this particular degree of freedom. 
 Please check the constraints used in this model. 


 ***WARNING: SOLVER PROBLEM.  ZERO PIVOT WHEN PROCESSING NODE 40499 INSTANCE 
             SH115 D.O.F. 11
  Typically a zero pivot is associated with an overconstraint in the model. 
 However, Abaqus was not able to identify any chains of constraints that might 
 lead to an overconstraint at this node. This suggests that the model might be 
 in fact insufficiently constrained in this particular degree of freedom. 
 Please check the constraints used in this model. 


 ***WARNING: SOLVER PROBLEM.  ZERO PIVOT WHEN PROCESSING NODE 40574 INSTANCE 
             SH115 D.O.F. 11
  Typically a zero pivot is associated with an overconstraint in the model. 
 However, Abaqus was not able to identify any chains of constraints that might 
 lead to an overconstraint at this node. This suggests that the model might be 
 in fact insufficiently constrained in this particular degree of freedom. 
 Please check the constraints used in this model. 


 ***WARNING: SOLVER PROBLEM.  ZERO PIVOT WHEN PROCESSING NODE 40826 INSTANCE 
             SH115 D.O.F. 11
  Typically a zero pivot is associated with an overconstraint in the model. 
 However, Abaqus was not able to identify any chains of constraints that might 
 lead to an overconstraint at this node. This suggests that the model might be 
 in fact insufficiently constrained in this particular degree of freedom. 
 Please check the constraints used in this model. 


 ***WARNING: SOLVER PROBLEM.  ZERO PIVOT WHEN PROCESSING NODE 13054 INSTANCE 
             SH115 D.O.F. 11
  Typically a zero pivot is associated with an overconstraint in the model. 
 However, Abaqus was not able to identify any chains of constraints that might 
 lead to an overconstraint at this node. This suggests that the model might be 
 in fact insufficiently constrained in this particular degree of freedom. 
 Please check the constraints used in this model. 


 ***WARNING: SOLVER PROBLEM.  ZERO PIVOT WHEN PROCESSING NODE 13138 INSTANCE 
             SH115 D.O.F. 11
  Typically a zero pivot is associated with an overconstraint in the model. 
 However, Abaqus was not able to identify any chains of constraints that might 
 lead to an overconstraint at this node. This suggests that the model might be 
 in fact insufficiently constrained in this particular degree of freedom. 
 Please check the constraints used in this model. 


 ***WARNING: SOLVER PROBLEM.  ZERO PIVOT WHEN PROCESSING NODE 34138 INSTANCE 
             SH115 D.O.F. 11
  Typically a zero pivot is associated with an overconstraint in the model. 
 However, Abaqus was not able to identify any chains of constraints that might 
 lead to an overconstraint at this node. This suggests that the model might be 
 in fact insufficiently constrained in this particular degree of freedom. 
 Please check the constraints used in this model. 


 ***WARNING: SOLVER PROBLEM.  ZERO PIVOT WHEN PROCESSING NODE 34222 INSTANCE 
             SH115 D.O.F. 11
  Typically a zero pivot is associated with an overconstraint in the model. 
 However, Abaqus was not able to identify any chains of constraints that might 
 lead to an overconstraint at this node. This suggests that the model might be 
 in fact insufficiently constrained in this particular degree of freedom. 
 Please check the constraints used in this model. 


 ***WARNING: SOLVER PROBLEM.  ZERO PIVOT WHEN PROCESSING NODE 13299 INSTANCE 
             SH115 D.O.F. 11
  Typically a zero pivot is associated with an overconstraint in the model. 
 However, Abaqus was not able to identify any chains of constraints that might 
 lead to an overconstraint at this node. This suggests that the model might be 
 in fact insufficiently constrained in this particular degree of freedom. 
 Please check the constraints used in this model. 


 ***WARNING: SOLVER PROBLEM.  ZERO PIVOT WHEN PROCESSING NODE 13298 INSTANCE 
             SH115 D.O.F. 11
  Typically a zero pivot is associated with an overconstraint in the model. 
 However, Abaqus was not able to identify any chains of constraints that might 
 lead to an overconstraint at this node. This suggests that the model might be 
 in fact insufficiently constrained in this particular degree of freedom. 
 Please check the constraints used in this model. 


 ***WARNING: SOLVER PROBLEM.  ZERO PIVOT WHEN PROCESSING NODE 13264 INSTANCE 
             SH115 D.O.F. 11
  Typically a zero pivot is associated with an overconstraint in the model. 
 However, Abaqus was not able to identify any chains of constraints that might 
 lead to an overconstraint at this node. This suggests that the model might be 
 in fact insufficiently constrained in this particular degree of freedom. 
 Please check the constraints used in this model. 


 ***WARNING: SOLVER PROBLEM.  ZERO PIVOT WHEN PROCESSING NODE 13262 INSTANCE 
             SH115 D.O.F. 11
  Typically a zero pivot is associated with an overconstraint in the model. 
 However, Abaqus was not able to identify any chains of constraints that might 
 lead to an overconstraint at this node. This suggests that the model might be 
 in fact insufficiently constrained in this particular degree of freedom. 
 Please check the constraints used in this model. 


 ***WARNING: SOLVER PROBLEM.  ZERO PIVOT WHEN PROCESSING NODE 34383 INSTANCE 
             SH115 D.O.F. 11
  Typically a zero pivot is associated with an overconstraint in the model. 
 However, Abaqus was not able to identify any chains of constraints that might 
 lead to an overconstraint at this node. This suggests that the model might be 
 in fact insufficiently constrained in this particular degree of freedom. 
 Please check the constraints used in this model. 


 ***WARNING: SOLVER PROBLEM.  ZERO PIVOT WHEN PROCESSING NODE 34382 INSTANCE 
             SH115 D.O.F. 11
  Typically a zero pivot is associated with an overconstraint in the model. 
 However, Abaqus was not able to identify any chains of constraints that might 
 lead to an overconstraint at this node. This suggests that the model might be 
 in fact insufficiently constrained in this particular degree of freedom. 
 Please check the constraints used in this model. 


 ***WARNING: SOLVER PROBLEM.  ZERO PIVOT WHEN PROCESSING NODE 34348 INSTANCE 
             SH115 D.O.F. 11
  Typically a zero pivot is associated with an overconstraint in the model. 
 However, Abaqus was not able to identify any chains of constraints that might 
 lead to an overconstraint at this node. This suggests that the model might be 
 in fact insufficiently constrained in this particular degree of freedom. 
 Please check the constraints used in this model. 


 ***WARNING: SOLVER PROBLEM.  ZERO PIVOT WHEN PROCESSING NODE 34346 INSTANCE 
             SH115 D.O.F. 11
  Typically a zero pivot is associated with an overconstraint in the model. 
 However, Abaqus was not able to identify any chains of constraints that might 
 lead to an overconstraint at this node. This suggests that the model might be 
 in fact insufficiently constrained in this particular degree of freedom. 
 Please check the constraints used in this model. 


 ***WARNING: SOLVER PROBLEM.  ZERO PIVOT WHEN PROCESSING NODE 34296 INSTANCE 
             SH115 D.O.F. 11
  Typically a zero pivot is associated with an overconstraint in the model. 
 However, Abaqus was not able to identify any chains of constraints that might 
 lead to an overconstraint at this node. This suggests that the model might be 
 in fact insufficiently constrained in this particular degree of freedom. 
 Please check the constraints used in this model. 


 ***WARNING: SOLVER PROBLEM.  ZERO PIVOT WHEN PROCESSING NODE 13212 INSTANCE 
             SH115 D.O.F. 11
  Typically a zero pivot is associated with an overconstraint in the model. 
 However, Abaqus was not able to identify any chains of constraints that might 
 lead to an overconstraint at this node. This suggests that the model might be 
 in fact insufficiently constrained in this particular degree of freedom. 
 Please check the constraints used in this model. 


 ***WARNING: SOLVER PROBLEM.  ZERO PIVOT WHEN PROCESSING NODE 13046 INSTANCE 
             SH115 D.O.F. 11
  Typically a zero pivot is associated with an overconstraint in the model. 
 However, Abaqus was not able to identify any chains of constraints that might 
 lead to an overconstraint at this node. This suggests that the model might be 
 in fact insufficiently constrained in this particular degree of freedom. 
 Please check the constraints used in this model. 


 ***WARNING: SOLVER PROBLEM.  ZERO PIVOT WHEN PROCESSING NODE 13472 INSTANCE 
             SH115 D.O.F. 11
  Typically a zero pivot is associated with an overconstraint in the model. 
 However, Abaqus was not able to identify any chains of constraints that might 
 lead to an overconstraint at this node. This suggests that the model might be 
 in fact insufficiently constrained in this particular degree of freedom. 
 Please check the constraints used in this model. 


 ***WARNING: SOLVER PROBLEM.  ZERO PIVOT WHEN PROCESSING NODE 34130 INSTANCE 
             SH115 D.O.F. 11
  Typically a zero pivot is associated with an overconstraint in the model. 
 However, Abaqus was not able to identify any chains of constraints that might 
 lead to an overconstraint at this node. This suggests that the model might be 
 in fact insufficiently constrained in this particular degree of freedom. 
 Please check the constraints used in this model. 


 ***WARNING: SOLVER PROBLEM.  ZERO PIVOT WHEN PROCESSING NODE 34556 INSTANCE 
             SH115 D.O.F. 11
  Typically a zero pivot is associated with an overconstraint in the model. 
 However, Abaqus was not able to identify any chains of constraints that might 
 lead to an overconstraint at this node. This suggests that the model might be 
 in fact insufficiently constrained in this particular degree of freedom. 
 Please check the constraints used in this model. 


 ***WARNING: SOLVER PROBLEM.  ZERO PIVOT WHEN PROCESSING NODE 34547 INSTANCE 
             SH115 D.O.F. 11
  Typically a zero pivot is associated with an overconstraint in the model. 
 However, Abaqus was not able to identify any chains of constraints that might 
 lead to an overconstraint at this node. This suggests that the model might be 
 in fact insufficiently constrained in this particular degree of freedom. 
 Please check the constraints used in this model. 


 ***WARNING: SOLVER PROBLEM.  ZERO PIVOT WHEN PROCESSING NODE 13136 INSTANCE 
             SH115 D.O.F. 11
  Typically a zero pivot is associated with an overconstraint in the model. 
 However, Abaqus was not able to identify any chains of constraints that might 
 lead to an overconstraint at this node. This suggests that the model might be 
 in fact insufficiently constrained in this particular degree of freedom. 
 Please check the constraints used in this model. 


 ***WARNING: SOLVER PROBLEM.  ZERO PIVOT WHEN PROCESSING NODE 13211 INSTANCE 
             SH115 D.O.F. 11
  Typically a zero pivot is associated with an overconstraint in the model. 
 However, Abaqus was not able to identify any chains of constraints that might 
 lead to an overconstraint at this node. This suggests that the model might be 
 in fact insufficiently constrained in this particular degree of freedom. 
 Please check the constraints used in this model. 


 ***WARNING: SOLVER PROBLEM.  ZERO PIVOT WHEN PROCESSING NODE 13463 INSTANCE 
             SH115 D.O.F. 11
  Typically a zero pivot is associated with an overconstraint in the model. 
 However, Abaqus was not able to identify any chains of constraints that might 
 lead to an overconstraint at this node. This suggests that the model might be 
 in fact insufficiently constrained in this particular degree of freedom. 
 Please check the constraints used in this model. 


 ***WARNING: SOLVER PROBLEM.  ZERO PIVOT WHEN PROCESSING NODE 34220 INSTANCE 
             SH115 D.O.F. 11
  Typically a zero pivot is associated with an overconstraint in the model. 
 However, Abaqus was not able to identify any chains of constraints that might 
 lead to an overconstraint at this node. This suggests that the model might be 
 in fact insufficiently constrained in this particular degree of freedom. 
 Please check the constraints used in this model. 


 ***WARNING: SOLVER PROBLEM.  ZERO PIVOT WHEN PROCESSING NODE 34295 INSTANCE 
             SH115 D.O.F. 11
  Typically a zero pivot is associated with an overconstraint in the model. 
 However, Abaqus was not able to identify any chains of constraints that might 
 lead to an overconstraint at this node. This suggests that the model might be 
 in fact insufficiently constrained in this particular degree of freedom. 
 Please check the constraints used in this model. 


 ***WARNING: SOLVER PROBLEM.  ZERO PIVOT WHEN PROCESSING NODE 36649 INSTANCE 
             SH115 D.O.F. 11
  Typically a zero pivot is associated with an overconstraint in the model. 
 However, Abaqus was not able to identify any chains of constraints that might 
 lead to an overconstraint at this node. This suggests that the model might be 
 in fact insufficiently constrained in this particular degree of freedom. 
 Please check the constraints used in this model. 


 ***WARNING: Solver problem. Zero pivot when processing D.O.F. 11 of 49 nodes. 
             The nodes have been identified in node set 
             WarnNodeSolvProbZeroPiv_11_2_1_1_1.

               CONVERGENCE CHECKS FOR EQUILIBRIUM ITERATION     1


 AVERAGE FORCE                      8.431E-02   TIME AVG. FORCE       8.431E-02
 LARGEST SCALED RESIDUAL FORCE     -1.313E-02   AT NODE      13688   DOF  3
   INSTANCE: SH115                                                                           
  CORRESPONDING RESIDUAL FORCE     -1.313E-02
 LARGEST INCREMENT OF DISP.         2.213E-05   AT NODE         11   DOF  2
   INSTANCE: SH115                                                                           
 LARGEST CORRECTION TO DISP.        2.213E-05   AT NODE         11   DOF  2
   INSTANCE: SH115                                                                           
          FORCE     EQUILIBRIUM NOT ACHIEVED WITHIN TOLERANCE.

 AVERAGE HEAT FLUX                  1.836E-16   TIME AVG. HEAT FLUX   1.000E-02
 LARGEST RESIDUAL HEAT FLUX         1.025E-18   AT NODE      41213   DOF 11
   INSTANCE: SH115                                                                           
 LARGEST INCREMENT OF TEMP.         2.547E-04   AT NODE       1063   DOF 11
   INSTANCE: SH115                                                                           
 LARGEST CORRECTION TO TEMP.        2.547E-04   AT NODE       1063   DOF 11
   INSTANCE: SH115                                                                           
          THERE IS ZERO HEAT FLUX EVERYWHERE
 

 ***WARNING: THERE IS ZERO HEAT FLUX EVERYWHERE IN THE MODEL BASED ON THE 
             DEFAULT CRITERION. PLEASE CHECK THE VALUE OF THE AVERAGE HEAT FLUX 
             DURING THE CURRENT ITERATION TO VERIFY THAT THE HEAT FLUX IS SMALL 
             ENOUGH TO BE TREATED AS ZERO. IF NOT, PLEASE USE THE SOLUTION 
             CONTROLS TO RESET THE CRITERION FOR ZERO HEAT FLUX.
 
	UNSYMMETRIC NEW DIRECT SPARSE SOLVER RUNNING ON
 	1 HOST x 1 MPI RANK PER HOST x 6 THREADS PER RANK
        NUMBER OF EQUATIONS:  172632
        NUMBER OF RHS:        1
        NUMBER OF FLOPS:      1.917e+11
        SOLVER ELAPSED TIME:  1.2s

               CONVERGENCE CHECKS FOR EQUILIBRIUM ITERATION     2


 AVERAGE FORCE                      8.426E-02   TIME AVG. FORCE       8.426E-02
 LARGEST SCALED RESIDUAL FORCE      5.921E-06   AT NODE      10974   DOF  1
   INSTANCE: SH115                                                                           
  CORRESPONDING RESIDUAL FORCE      5.921E-06
 LARGEST INCREMENT OF DISP.         2.213E-05   AT NODE         11   DOF  2
   INSTANCE: SH115                                                                           
 LARGEST CORRECTION TO DISP.       -9.355E-09   AT NODE         34   DOF  1
   INSTANCE: SH115                                                                           
          THE FORCE     EQUILIBRIUM EQUATIONS HAVE CONVERGED

 AVERAGE HEAT FLUX                  1.836E-16   TIME AVG. HEAT FLUX   1.000E-02
 LARGEST RESIDUAL HEAT FLUX         1.297E-21   AT NODE      42024   DOF 11
   INSTANCE: SH115                                                                           
 LARGEST INCREMENT OF TEMP.         2.547E-04   AT NODE       1063   DOF 11
   INSTANCE: SH115                                                                           
 LARGEST CORRECTION TO TEMP.        6.036E-08   AT NODE       7617   DOF 11
   INSTANCE: SH115                                                                           
          THERE IS ZERO HEAT FLUX EVERYWHERE
 

 ***WARNING: THERE IS ZERO HEAT FLUX EVERYWHERE IN THE MODEL BASED ON THE 
             DEFAULT CRITERION. PLEASE CHECK THE VALUE OF THE AVERAGE HEAT FLUX 
             DURING THE CURRENT ITERATION TO VERIFY THAT THE HEAT FLUX IS SMALL 
             ENOUGH TO BE TREATED AS ZERO. IF NOT, PLEASE USE THE SOLUTION 
             CONTROLS TO RESET THE CRITERION FOR ZERO HEAT FLUX.

 MAXIMUM NON-PRESCRIBED INCREMENT IN TEMPERATURE IS   2.547E-04

 ITERATION SUMMARY FOR THE INCREMENT:   2 TOTAL ITERATIONS, OF WHICH
   0 ARE SEVERE DISCONTINUITY ITERATIONS AND  2 ARE EQUILIBRIUM ITERATIONS.

 TIME INCREMENT COMPLETED   8.85    ,  FRACTION OF STEP COMPLETED  1.000E-02
 STEP TIME COMPLETED        8.85    ,  TOTAL TIME COMPLETED        7.209E+03


  INCREMENT     2 STARTS. ATTEMPT NUMBER  1, TIME INCREMENT   8.85    
 
	UNSYMMETRIC NEW DIRECT SPARSE SOLVER RUNNING ON
 	1 HOST x 1 MPI RANK PER HOST x 6 THREADS PER RANK
        NUMBER OF EQUATIONS:  172632
        NUMBER OF RHS:        1
        NUMBER OF FLOPS:      1.917e+11
        SOLVER ELAPSED TIME:  1.2s

               CONVERGENCE CHECKS FOR EQUILIBRIUM ITERATION     1


 AVERAGE FORCE                      0.171       TIME AVG. FORCE       0.128    
 LARGEST SCALED RESIDUAL FORCE      9.006E-06   AT NODE      10972   DOF  2
   INSTANCE: SH115                                                                           
  CORRESPONDING RESIDUAL FORCE      9.006E-06
 LARGEST INCREMENT OF DISP.         2.213E-05   AT NODE         11   DOF  2
   INSTANCE: SH115                                                                           
 LARGEST CORRECTION TO DISP.       -1.977E-08   AT NODE         34   DOF  1
   INSTANCE: SH115                                                                           
          THE FORCE     EQUILIBRIUM EQUATIONS HAVE CONVERGED

 AVERAGE HEAT FLUX                  2.415E-16   TIME AVG. HEAT FLUX   1.000E-02
 LARGEST RESIDUAL HEAT FLUX         4.852E-21   AT NODE      25404   DOF 11
   INSTANCE: SH115                                                                           
 LARGEST INCREMENT OF TEMP.         8.505E-03   AT NODE      27437   DOF 11
   INSTANCE: SH115                                                                           
 LARGEST CORRECTION TO TEMP.        8.491E-03   AT NODE      27437   DOF 11
   INSTANCE: SH115                                                                           
          THERE IS ZERO HEAT FLUX EVERYWHERE
 

 ***WARNING: THERE IS ZERO HEAT FLUX EVERYWHERE IN THE MODEL BASED ON THE 
             DEFAULT CRITERION. PLEASE CHECK THE VALUE OF THE AVERAGE HEAT FLUX 
             DURING THE CURRENT ITERATION TO VERIFY THAT THE HEAT FLUX IS SMALL 
             ENOUGH TO BE TREATED AS ZERO. IF NOT, PLEASE USE THE SOLUTION 
             CONTROLS TO RESET THE CRITERION FOR ZERO HEAT FLUX.

 MAXIMUM NON-PRESCRIBED INCREMENT IN TEMPERATURE IS   8.505E-03

 ITERATION SUMMARY FOR THE INCREMENT:   1 TOTAL ITERATIONS, OF WHICH
   0 ARE SEVERE DISCONTINUITY ITERATIONS AND  1 ARE EQUILIBRIUM ITERATIONS.

 TIME INCREMENT COMPLETED   8.85    ,  FRACTION OF STEP COMPLETED  2.000E-02
 STEP TIME COMPLETED        17.7    ,  TOTAL TIME COMPLETED        7.218E+03


  INCREMENT     3 STARTS. ATTEMPT NUMBER  1, TIME INCREMENT   8.85    
 
	UNSYMMETRIC NEW DIRECT SPARSE SOLVER RUNNING ON
 	1 HOST x 1 MPI RANK PER HOST x 6 THREADS PER RANK
        NUMBER OF EQUATIONS:  172632
        NUMBER OF RHS:        1
        NUMBER OF FLOPS:      1.917e+11
        SOLVER ELAPSED TIME:  1.2s

               CONVERGENCE CHECKS FOR EQUILIBRIUM ITERATION     1


 AVERAGE FORCE                      0.257       TIME AVG. FORCE       0.171    
 LARGEST SCALED RESIDUAL FORCE     -9.371E-06   AT NODE      11261   DOF  2
   INSTANCE: SH115                                                                           
  CORRESPONDING RESIDUAL FORCE     -9.371E-06
 LARGEST INCREMENT OF DISP.         2.213E-05   AT NODE         11   DOF  2
   INSTANCE: SH115                                                                           
 LARGEST CORRECTION TO DISP.       -1.953E-08   AT NODE         34   DOF  1
   INSTANCE: SH115                                                                           
          THE FORCE     EQUILIBRIUM EQUATIONS HAVE CONVERGED

 AVERAGE HEAT FLUX                  3.114E-16   TIME AVG. HEAT FLUX   1.000E-02
 LARGEST RESIDUAL HEAT FLUX         9.656E-21   AT NODE      25362   DOF 11
   INSTANCE: SH115                                                                           
 LARGEST INCREMENT OF TEMP.         1.431E-02   AT NODE      27437   DOF 11
   INSTANCE: SH115                                                                           
 LARGEST CORRECTION TO TEMP.        5.802E-03   AT NODE      27437   DOF 11
   INSTANCE: SH115                                                                           
          THERE IS ZERO HEAT FLUX EVERYWHERE
 

 ***WARNING: THERE IS ZERO HEAT FLUX EVERYWHERE IN THE MODEL BASED ON THE 
             DEFAULT CRITERION. PLEASE CHECK THE VALUE OF THE AVERAGE HEAT FLUX 
             DURING THE CURRENT ITERATION TO VERIFY THAT THE HEAT FLUX IS SMALL 
             ENOUGH TO BE TREATED AS ZERO. IF NOT, PLEASE USE THE SOLUTION 
             CONTROLS TO RESET THE CRITERION FOR ZERO HEAT FLUX.

 MAXIMUM NON-PRESCRIBED INCREMENT IN TEMPERATURE IS   1.431E-02

 ITERATION SUMMARY FOR THE INCREMENT:   1 TOTAL ITERATIONS, OF WHICH
   0 ARE SEVERE DISCONTINUITY ITERATIONS AND  1 ARE EQUILIBRIUM ITERATIONS.

 TIME INCREMENT COMPLETED   8.85    ,  FRACTION OF STEP COMPLETED  3.000E-02
 STEP TIME COMPLETED        26.5    ,  TOTAL TIME COMPLETED        7.227E+03


  INCREMENT     4 STARTS. ATTEMPT NUMBER  1, TIME INCREMENT   8.85    
 
	UNSYMMETRIC NEW DIRECT SPARSE SOLVER RUNNING ON
 	1 HOST x 1 MPI RANK PER HOST x 6 THREADS PER RANK
        NUMBER OF EQUATIONS:  172632
        NUMBER OF RHS:        1
        NUMBER OF FLOPS:      1.917e+11
        SOLVER ELAPSED TIME:  1.2s

               CONVERGENCE CHECKS FOR EQUILIBRIUM ITERATION     1


 AVERAGE FORCE                      0.342       TIME AVG. FORCE       0.213    
 LARGEST SCALED RESIDUAL FORCE     -3.262E-02   AT NODE      10999   DOF  2
   INSTANCE: SH115                                                                           
  CORRESPONDING RESIDUAL FORCE     -3.262E-02
 LARGEST INCREMENT OF DISP.         2.213E-05   AT NODE         11   DOF  2
   INSTANCE: SH115                                                                           
 LARGEST CORRECTION TO DISP.       -8.679E-08   AT NODE       1041   DOF  3
   INSTANCE: SH115                                                                           
          FORCE     EQUILIBRIUM NOT ACHIEVED WITHIN TOLERANCE.

 AVERAGE HEAT FLUX                  3.827E-16   TIME AVG. HEAT FLUX   1.000E-02
 LARGEST RESIDUAL HEAT FLUX        -9.682E-17   AT NODE      27463   DOF 11
   INSTANCE: SH115                                                                           
 LARGEST INCREMENT OF TEMP.         1.815E-02   AT NODE      27437   DOF 11
   INSTANCE: SH115                                                                           
 LARGEST CORRECTION TO TEMP.        3.842E-03   AT NODE      27437   DOF 11
   INSTANCE: SH115                                                                           
          THERE IS ZERO HEAT FLUX EVERYWHERE
 

 ***WARNING: THERE IS ZERO HEAT FLUX EVERYWHERE IN THE MODEL BASED ON THE 
             DEFAULT CRITERION. PLEASE CHECK THE VALUE OF THE AVERAGE HEAT FLUX 
             DURING THE CURRENT ITERATION TO VERIFY THAT THE HEAT FLUX IS SMALL 
             ENOUGH TO BE TREATED AS ZERO. IF NOT, PLEASE USE THE SOLUTION 
             CONTROLS TO RESET THE CRITERION FOR ZERO HEAT FLUX.
 
	UNSYMMETRIC NEW DIRECT SPARSE SOLVER RUNNING ON
 	1 HOST x 1 MPI RANK PER HOST x 6 THREADS PER RANK
        NUMBER OF EQUATIONS:  172632
        NUMBER OF RHS:        1
        NUMBER OF FLOPS:      1.917e+11
        SOLVER ELAPSED TIME:  1.2s

               CONVERGENCE CHECKS FOR EQUILIBRIUM ITERATION     2


 AVERAGE FORCE                      0.342       TIME AVG. FORCE       0.213    
 LARGEST SCALED RESIDUAL FORCE     -4.013E-04   AT NODE      28031   DOF  2
   INSTANCE: SH115                                                                           
  CORRESPONDING RESIDUAL FORCE     -4.013E-04
 LARGEST INCREMENT OF DISP.         2.213E-05   AT NODE         11   DOF  2
   INSTANCE: SH115                                                                           
 LARGEST CORRECTION TO DISP.        2.452E-09   AT NODE         44   DOF  2
   INSTANCE: SH115                                                                           
          THE FORCE     EQUILIBRIUM EQUATIONS HAVE CONVERGED

 AVERAGE HEAT FLUX                  3.827E-16   TIME AVG. HEAT FLUX   1.000E-02
 LARGEST RESIDUAL HEAT FLUX        -4.502E-18   AT NODE      26122   DOF 11
   INSTANCE: SH115                                                                           
 LARGEST INCREMENT OF TEMP.         1.786E-02   AT NODE      27437   DOF 11
   INSTANCE: SH115                                                                           
 LARGEST CORRECTION TO TEMP.       -3.819E-04   AT NODE      27463   DOF 11
   INSTANCE: SH115                                                                           
          THERE IS ZERO HEAT FLUX EVERYWHERE
 

 ***WARNING: THERE IS ZERO HEAT FLUX EVERYWHERE IN THE MODEL BASED ON THE 
             DEFAULT CRITERION. PLEASE CHECK THE VALUE OF THE AVERAGE HEAT FLUX 
             DURING THE CURRENT ITERATION TO VERIFY THAT THE HEAT FLUX IS SMALL 
             ENOUGH TO BE TREATED AS ZERO. IF NOT, PLEASE USE THE SOLUTION 
             CONTROLS TO RESET THE CRITERION FOR ZERO HEAT FLUX.

 MAXIMUM NON-PRESCRIBED INCREMENT IN TEMPERATURE IS   1.786E-02

 ITERATION SUMMARY FOR THE INCREMENT:   2 TOTAL ITERATIONS, OF WHICH
   0 ARE SEVERE DISCONTINUITY ITERATIONS AND  2 ARE EQUILIBRIUM ITERATIONS.

 TIME INCREMENT COMPLETED   8.85    ,  FRACTION OF STEP COMPLETED  4.000E-02
 STEP TIME COMPLETED        35.4    ,  TOTAL TIME COMPLETED        7.235E+03


  INCREMENT     5 STARTS. ATTEMPT NUMBER  1, TIME INCREMENT   8.85    
 
	UNSYMMETRIC NEW DIRECT SPARSE SOLVER RUNNING ON
 	1 HOST x 1 MPI RANK PER HOST x 6 THREADS PER RANK
        NUMBER OF EQUATIONS:  172632
        NUMBER OF RHS:        1
        NUMBER OF FLOPS:      1.917e+11
        SOLVER ELAPSED TIME:  1.3s

               CONVERGENCE CHECKS FOR EQUILIBRIUM ITERATION     1


 AVERAGE FORCE                      0.427       TIME AVG. FORCE       0.256    
 LARGEST SCALED RESIDUAL FORCE      0.186       AT NODE      27978   DOF  2
   INSTANCE: SH115                                                                           
  CORRESPONDING RESIDUAL FORCE      0.186    
 LARGEST INCREMENT OF DISP.         2.213E-05   AT NODE         11   DOF  2
   INSTANCE: SH115                                                                           
 LARGEST CORRECTION TO DISP.        3.269E-07   AT NODE       1230   DOF  2
   INSTANCE: SH115                                                                           
          FORCE     EQUILIBRIUM NOT ACHIEVED WITHIN TOLERANCE.

 AVERAGE HEAT FLUX                  4.516E-16   TIME AVG. HEAT FLUX   1.000E-02
 LARGEST RESIDUAL HEAT FLUX        -5.290E-16   AT NODE      10721   DOF 11
   INSTANCE: SH115                                                                           
 LARGEST INCREMENT OF TEMP.         2.523E-02   AT NODE      25553   DOF 11
   INSTANCE: SH115                                                                           
 LARGEST CORRECTION TO TEMP.        1.947E-02   AT NODE       7617   DOF 11
   INSTANCE: SH115                                                                           
          THERE IS ZERO HEAT FLUX EVERYWHERE
 

 ***WARNING: THERE IS ZERO HEAT FLUX EVERYWHERE IN THE MODEL BASED ON THE 
             DEFAULT CRITERION. PLEASE CHECK THE VALUE OF THE AVERAGE HEAT FLUX 
             DURING THE CURRENT ITERATION TO VERIFY THAT THE HEAT FLUX IS SMALL 
             ENOUGH TO BE TREATED AS ZERO. IF NOT, PLEASE USE THE SOLUTION 
             CONTROLS TO RESET THE CRITERION FOR ZERO HEAT FLUX.
 
	UNSYMMETRIC NEW DIRECT SPARSE SOLVER RUNNING ON
 	1 HOST x 1 MPI RANK PER HOST x 6 THREADS PER RANK
        NUMBER OF EQUATIONS:  172632
        NUMBER OF RHS:        1
        NUMBER OF FLOPS:      1.917e+11
        SOLVER ELAPSED TIME:  1.3s

               CONVERGENCE CHECKS FOR EQUILIBRIUM ITERATION     2


 AVERAGE FORCE                      0.427       TIME AVG. FORCE       0.256    
 LARGEST SCALED RESIDUAL FORCE     -1.407E-02   AT NODE      26120   DOF  2
   INSTANCE: SH115                                                                           
  CORRESPONDING RESIDUAL FORCE     -1.407E-02
 LARGEST INCREMENT OF DISP.         2.213E-05   AT NODE         11   DOF  2
   INSTANCE: SH115                                                                           
 LARGEST CORRECTION TO DISP.       -1.922E-08   AT NODE        497   DOF  2
   INSTANCE: SH115                                                                           
          FORCE     EQUILIBRIUM NOT ACHIEVED WITHIN TOLERANCE.

 AVERAGE HEAT FLUX                  4.516E-16   TIME AVG. HEAT FLUX   1.000E-02
 LARGEST RESIDUAL HEAT FLUX        -5.456E-17   AT NODE      25553   DOF 11
   INSTANCE: SH115                                                                           
 LARGEST INCREMENT OF TEMP.         2.379E-02   AT NODE      25553   DOF 11
   INSTANCE: SH115                                                                           
 LARGEST CORRECTION TO TEMP.       -1.922E-03   AT NODE       7592   DOF 11
   INSTANCE: SH115                                                                           
          THERE IS ZERO HEAT FLUX EVERYWHERE
 

 ***WARNING: THERE IS ZERO HEAT FLUX EVERYWHERE IN THE MODEL BASED ON THE 
             DEFAULT CRITERION. PLEASE CHECK THE VALUE OF THE AVERAGE HEAT FLUX 
             DURING THE CURRENT ITERATION TO VERIFY THAT THE HEAT FLUX IS SMALL 
             ENOUGH TO BE TREATED AS ZERO. IF NOT, PLEASE USE THE SOLUTION 
             CONTROLS TO RESET THE CRITERION FOR ZERO HEAT FLUX.
 
	UNSYMMETRIC NEW DIRECT SPARSE SOLVER RUNNING ON
 	1 HOST x 1 MPI RANK PER HOST x 6 THREADS PER RANK
        NUMBER OF EQUATIONS:  172632
        NUMBER OF RHS:        1
        NUMBER OF FLOPS:      1.917e+11
        SOLVER ELAPSED TIME:  1.2s

               CONVERGENCE CHECKS FOR EQUILIBRIUM ITERATION     3


 AVERAGE FORCE                      0.427       TIME AVG. FORCE       0.256    
 LARGEST SCALED RESIDUAL FORCE     -3.030E-05   AT NODE      26120   DOF  1
   INSTANCE: SH115                                                                           
  CORRESPONDING RESIDUAL FORCE     -3.030E-05
 LARGEST INCREMENT OF DISP.         2.213E-05   AT NODE         11   DOF  2
   INSTANCE: SH115                                                                           
 LARGEST CORRECTION TO DISP.       -7.346E-10   AT NODE      26120   DOF  2
   INSTANCE: SH115                                                                           
          THE FORCE     EQUILIBRIUM EQUATIONS HAVE CONVERGED

 AVERAGE HEAT FLUX                  4.516E-16   TIME AVG. HEAT FLUX   1.000E-02
 LARGEST RESIDUAL HEAT FLUX        -2.094E-18   AT NODE      10895   DOF 11
   INSTANCE: SH115                                                                           
 LARGEST INCREMENT OF TEMP.         2.358E-02   AT NODE      27436   DOF 11
   INSTANCE: SH115                                                                           
 LARGEST CORRECTION TO TEMP.       -2.406E-04   AT NODE      26121   DOF 11
   INSTANCE: SH115                                                                           
          THERE IS ZERO HEAT FLUX EVERYWHERE
 

 ***WARNING: THERE IS ZERO HEAT FLUX EVERYWHERE IN THE MODEL BASED ON THE 
             DEFAULT CRITERION. PLEASE CHECK THE VALUE OF THE AVERAGE HEAT FLUX 
             DURING THE CURRENT ITERATION TO VERIFY THAT THE HEAT FLUX IS SMALL 
             ENOUGH TO BE TREATED AS ZERO. IF NOT, PLEASE USE THE SOLUTION 
             CONTROLS TO RESET THE CRITERION FOR ZERO HEAT FLUX.

 MAXIMUM NON-PRESCRIBED INCREMENT IN TEMPERATURE IS   2.358E-02

 ITERATION SUMMARY FOR THE INCREMENT:   3 TOTAL ITERATIONS, OF WHICH
   0 ARE SEVERE DISCONTINUITY ITERATIONS AND  3 ARE EQUILIBRIUM ITERATIONS.

 TIME INCREMENT COMPLETED   8.85    ,  FRACTION OF STEP COMPLETED  5.000E-02
 STEP TIME COMPLETED        44.2    ,  TOTAL TIME COMPLETED        7.244E+03


  INCREMENT     6 STARTS. ATTEMPT NUMBER  1, TIME INCREMENT   8.85    
 
	UNSYMMETRIC NEW DIRECT SPARSE SOLVER RUNNING ON
 	1 HOST x 1 MPI RANK PER HOST x 6 THREADS PER RANK
        NUMBER OF EQUATIONS:  172632
        NUMBER OF RHS:        1
        NUMBER OF FLOPS:      1.917e+11
        SOLVER ELAPSED TIME:  1.2s

               CONVERGENCE CHECKS FOR EQUILIBRIUM ITERATION     1


 AVERAGE FORCE                      0.510       TIME AVG. FORCE       0.298    
 LARGEST SCALED RESIDUAL FORCE      0.151       AT NODE      15696   DOF  2
   INSTANCE: SH115                                                                           
  CORRESPONDING RESIDUAL FORCE      0.151    
 LARGEST INCREMENT OF DISP.         2.213E-05   AT NODE         11   DOF  2
   INSTANCE: SH115                                                                           
 LARGEST CORRECTION TO DISP.        4.550E-07   AT NODE       1227   DOF  2
   INSTANCE: SH115                                                                           
          FORCE     EQUILIBRIUM NOT ACHIEVED WITHIN TOLERANCE.

 AVERAGE HEAT FLUX                  5.138E-16   TIME AVG. HEAT FLUX   1.000E-02
 LARGEST RESIDUAL HEAT FLUX        -6.724E-16   AT NODE      34422   DOF 11
   INSTANCE: SH115                                                                           
 LARGEST INCREMENT OF TEMP.         3.817E-02   AT NODE       6439   DOF 11
   INSTANCE: SH115                                                                           
 LARGEST CORRECTION TO TEMP.        3.784E-02   AT NODE       6439   DOF 11
   INSTANCE: SH115                                                                           
          THERE IS ZERO HEAT FLUX EVERYWHERE
 

 ***WARNING: THERE IS ZERO HEAT FLUX EVERYWHERE IN THE MODEL BASED ON THE 
             DEFAULT CRITERION. PLEASE CHECK THE VALUE OF THE AVERAGE HEAT FLUX 
             DURING THE CURRENT ITERATION TO VERIFY THAT THE HEAT FLUX IS SMALL 
             ENOUGH TO BE TREATED AS ZERO. IF NOT, PLEASE USE THE SOLUTION 
             CONTROLS TO RESET THE CRITERION FOR ZERO HEAT FLUX.
 
	UNSYMMETRIC NEW DIRECT SPARSE SOLVER RUNNING ON
 	1 HOST x 1 MPI RANK PER HOST x 6 THREADS PER RANK
        NUMBER OF EQUATIONS:  172632
        NUMBER OF RHS:        1
        NUMBER OF FLOPS:      1.917e+11
        SOLVER ELAPSED TIME:  1.2s

               CONVERGENCE CHECKS FOR EQUILIBRIUM ITERATION     2


 AVERAGE FORCE                      0.509       TIME AVG. FORCE       0.298    
 LARGEST SCALED RESIDUAL FORCE      6.775E-03   AT NODE      21332   DOF  3
   INSTANCE: SH115                                                                           
  CORRESPONDING RESIDUAL FORCE      6.775E-03
 LARGEST INCREMENT OF DISP.         2.213E-05   AT NODE         11   DOF  2
   INSTANCE: SH115                                                                           
 LARGEST CORRECTION TO DISP.        2.116E-08   AT NODE      11495   DOF  2
   INSTANCE: SH115                                                                           
          FORCE     EQUILIBRIUM NOT ACHIEVED WITHIN TOLERANCE.

 AVERAGE HEAT FLUX                  5.138E-16   TIME AVG. HEAT FLUX   1.000E-02
 LARGEST RESIDUAL HEAT FLUX        -4.522E-17   AT NODE      38824   DOF 11
   INSTANCE: SH115                                                                           
 LARGEST INCREMENT OF TEMP.         3.673E-02   AT NODE       6439   DOF 11
   INSTANCE: SH115                                                                           
 LARGEST CORRECTION TO TEMP.       -2.130E-03   AT NODE       3963   DOF 11
   INSTANCE: SH115                                                                           
          THERE IS ZERO HEAT FLUX EVERYWHERE
 

 ***WARNING: THERE IS ZERO HEAT FLUX EVERYWHERE IN THE MODEL BASED ON THE 
             DEFAULT CRITERION. PLEASE CHECK THE VALUE OF THE AVERAGE HEAT FLUX 
             DURING THE CURRENT ITERATION TO VERIFY THAT THE HEAT FLUX IS SMALL 
             ENOUGH TO BE TREATED AS ZERO. IF NOT, PLEASE USE THE SOLUTION 
             CONTROLS TO RESET THE CRITERION FOR ZERO HEAT FLUX.
 
	UNSYMMETRIC NEW DIRECT SPARSE SOLVER RUNNING ON
 	1 HOST x 1 MPI RANK PER HOST x 6 THREADS PER RANK
        NUMBER OF EQUATIONS:  172632
        NUMBER OF RHS:        1
        NUMBER OF FLOPS:      1.917e+11
        SOLVER ELAPSED TIME:  1.2s

               CONVERGENCE CHECKS FOR EQUILIBRIUM ITERATION     3


 AVERAGE FORCE                      0.509       TIME AVG. FORCE       0.298    
 LARGEST SCALED RESIDUAL FORCE      7.982E-06   AT NODE      21332   DOF  2
   INSTANCE: SH115                                                                           
  CORRESPONDING RESIDUAL FORCE      7.982E-06
 LARGEST INCREMENT OF DISP.         2.213E-05   AT NODE         11   DOF  2
   INSTANCE: SH115                                                                           
 LARGEST CORRECTION TO DISP.       -2.599E-10   AT NODE      21332   DOF  2
   INSTANCE: SH115                                                                           
          THE FORCE     EQUILIBRIUM EQUATIONS HAVE CONVERGED

 AVERAGE HEAT FLUX                  5.139E-16   TIME AVG. HEAT FLUX   1.000E-02
 LARGEST RESIDUAL HEAT FLUX        -7.238E-19   AT NODE      21332   DOF 11
   INSTANCE: SH115                                                                           
 LARGEST INCREMENT OF TEMP.         3.667E-02   AT NODE       6439   DOF 11
   INSTANCE: SH115                                                                           
 LARGEST CORRECTION TO TEMP.       -1.436E-04   AT NODE      38824   DOF 11
   INSTANCE: SH115                                                                           
          THERE IS ZERO HEAT FLUX EVERYWHERE
 

 ***WARNING: THERE IS ZERO HEAT FLUX EVERYWHERE IN THE MODEL BASED ON THE 
             DEFAULT CRITERION. PLEASE CHECK THE VALUE OF THE AVERAGE HEAT FLUX 
             DURING THE CURRENT ITERATION TO VERIFY THAT THE HEAT FLUX IS SMALL 
             ENOUGH TO BE TREATED AS ZERO. IF NOT, PLEASE USE THE SOLUTION 
             CONTROLS TO RESET THE CRITERION FOR ZERO HEAT FLUX.

 MAXIMUM NON-PRESCRIBED INCREMENT IN TEMPERATURE IS   3.667E-02

 ITERATION SUMMARY FOR THE INCREMENT:   3 TOTAL ITERATIONS, OF WHICH
   0 ARE SEVERE DISCONTINUITY ITERATIONS AND  3 ARE EQUILIBRIUM ITERATIONS.

 TIME INCREMENT COMPLETED   8.85    ,  FRACTION OF STEP COMPLETED  6.000E-02
 STEP TIME COMPLETED        53.1    ,  TOTAL TIME COMPLETED        7.253E+03


  INCREMENT     7 STARTS. ATTEMPT NUMBER  1, TIME INCREMENT   8.85    
 
	UNSYMMETRIC NEW DIRECT SPARSE SOLVER RUNNING ON
 	1 HOST x 1 MPI RANK PER HOST x 6 THREADS PER RANK
        NUMBER OF EQUATIONS:  172632
        NUMBER OF RHS:        1
        NUMBER OF FLOPS:      1.917e+11
        SOLVER ELAPSED TIME:  1.2s

               CONVERGENCE CHECKS FOR EQUILIBRIUM ITERATION     1


 AVERAGE FORCE                      0.590       TIME AVG. FORCE       0.340    
 LARGEST SCALED RESIDUAL FORCE     -0.186       AT NODE       2651   DOF  3
   INSTANCE: SH115                                                                           
  CORRESPONDING RESIDUAL FORCE     -0.186    
 LARGEST INCREMENT OF DISP.         2.213E-05   AT NODE         11   DOF  2
   INSTANCE: SH115                                                                           
 LARGEST CORRECTION TO DISP.        4.803E-07   AT NODE      15650   DOF  2
   INSTANCE: SH115                                                                           
          FORCE     EQUILIBRIUM NOT ACHIEVED WITHIN TOLERANCE.

 AVERAGE HEAT FLUX                  5.763E-16   TIME AVG. HEAT FLUX   1.000E-02
 LARGEST RESIDUAL HEAT FLUX        -8.645E-16   AT NODE      38867   DOF 11
   INSTANCE: SH115                                                                           
 LARGEST INCREMENT OF TEMP.         3.616E-02   AT NODE       6438   DOF 11
   INSTANCE: SH115                                                                           
 LARGEST CORRECTION TO TEMP.       -3.604E-02   AT NODE      31202   DOF 11
   INSTANCE: SH115                                                                           
          THERE IS ZERO HEAT FLUX EVERYWHERE
 

 ***WARNING: THERE IS ZERO HEAT FLUX EVERYWHERE IN THE MODEL BASED ON THE 
             DEFAULT CRITERION. PLEASE CHECK THE VALUE OF THE AVERAGE HEAT FLUX 
             DURING THE CURRENT ITERATION TO VERIFY THAT THE HEAT FLUX IS SMALL 
             ENOUGH TO BE TREATED AS ZERO. IF NOT, PLEASE USE THE SOLUTION 
             CONTROLS TO RESET THE CRITERION FOR ZERO HEAT FLUX.
 
	UNSYMMETRIC NEW DIRECT SPARSE SOLVER RUNNING ON
 	1 HOST x 1 MPI RANK PER HOST x 6 THREADS PER RANK
        NUMBER OF EQUATIONS:  172632
        NUMBER OF RHS:        1
        NUMBER OF FLOPS:      1.917e+11
        SOLVER ELAPSED TIME:  1.2s

               CONVERGENCE CHECKS FOR EQUILIBRIUM ITERATION     2


 AVERAGE FORCE                      0.589       TIME AVG. FORCE       0.340    
 LARGEST SCALED RESIDUAL FORCE      5.593E-03   AT NODE      21238   DOF  3
   INSTANCE: SH115                                                                           
  CORRESPONDING RESIDUAL FORCE      5.593E-03
 LARGEST INCREMENT OF DISP.         2.213E-05   AT NODE         11   DOF  2
   INSTANCE: SH115                                                                           
 LARGEST CORRECTION TO DISP.        2.353E-08   AT NODE      33132   DOF  2
   INSTANCE: SH115                                                                           
          FORCE     EQUILIBRIUM NOT ACHIEVED WITHIN TOLERANCE.

 AVERAGE HEAT FLUX                  5.763E-16   TIME AVG. HEAT FLUX   1.000E-02
 LARGEST RESIDUAL HEAT FLUX        -1.044E-16   AT NODE      17076   DOF 11
   INSTANCE: SH115                                                                           
 LARGEST INCREMENT OF TEMP.         3.522E-02   AT NODE       6438   DOF 11
   INSTANCE: SH115                                                                           
 LARGEST CORRECTION TO TEMP.       -1.731E-03   AT NODE      34432   DOF 11
   INSTANCE: SH115                                                                           
          THERE IS ZERO HEAT FLUX EVERYWHERE
 

 ***WARNING: THERE IS ZERO HEAT FLUX EVERYWHERE IN THE MODEL BASED ON THE 
             DEFAULT CRITERION. PLEASE CHECK THE VALUE OF THE AVERAGE HEAT FLUX 
             DURING THE CURRENT ITERATION TO VERIFY THAT THE HEAT FLUX IS SMALL 
             ENOUGH TO BE TREATED AS ZERO. IF NOT, PLEASE USE THE SOLUTION 
             CONTROLS TO RESET THE CRITERION FOR ZERO HEAT FLUX.
 
	UNSYMMETRIC NEW DIRECT SPARSE SOLVER RUNNING ON
 	1 HOST x 1 MPI RANK PER HOST x 6 THREADS PER RANK
        NUMBER OF EQUATIONS:  172632
        NUMBER OF RHS:        1
        NUMBER OF FLOPS:      1.917e+11
        SOLVER ELAPSED TIME:  1.2s

               CONVERGENCE CHECKS FOR EQUILIBRIUM ITERATION     3


 AVERAGE FORCE                      0.589       TIME AVG. FORCE       0.340    
 LARGEST SCALED RESIDUAL FORCE      7.636E-06   AT NODE      19361   DOF  2
   INSTANCE: SH115                                                                           
  CORRESPONDING RESIDUAL FORCE      7.636E-06
 LARGEST INCREMENT OF DISP.         2.213E-05   AT NODE         11   DOF  2
   INSTANCE: SH115                                                                           
 LARGEST CORRECTION TO DISP.       -3.077E-10   AT NODE      19361   DOF  2
   INSTANCE: SH115                                                                           
          THE FORCE     EQUILIBRIUM EQUATIONS HAVE CONVERGED

 AVERAGE HEAT FLUX                  5.763E-16   TIME AVG. HEAT FLUX   1.000E-02
 LARGEST RESIDUAL HEAT FLUX        -1.368E-18   AT NODE      19110   DOF 11
   INSTANCE: SH115                                                                           
 LARGEST INCREMENT OF TEMP.         3.522E-02   AT NODE       6438   DOF 11
   INSTANCE: SH115                                                                           
 LARGEST CORRECTION TO TEMP.       -1.817E-04   AT NODE      23037   DOF 11
   INSTANCE: SH115                                                                           
          THERE IS ZERO HEAT FLUX EVERYWHERE
 

 ***WARNING: THERE IS ZERO HEAT FLUX EVERYWHERE IN THE MODEL BASED ON THE 
             DEFAULT CRITERION. PLEASE CHECK THE VALUE OF THE AVERAGE HEAT FLUX 
             DURING THE CURRENT ITERATION TO VERIFY THAT THE HEAT FLUX IS SMALL 
             ENOUGH TO BE TREATED AS ZERO. IF NOT, PLEASE USE THE SOLUTION 
             CONTROLS TO RESET THE CRITERION FOR ZERO HEAT FLUX.

 MAXIMUM NON-PRESCRIBED INCREMENT IN TEMPERATURE IS   3.522E-02

 ITERATION SUMMARY FOR THE INCREMENT:   3 TOTAL ITERATIONS, OF WHICH
   0 ARE SEVERE DISCONTINUITY ITERATIONS AND  3 ARE EQUILIBRIUM ITERATIONS.

 TIME INCREMENT COMPLETED   8.85    ,  FRACTION OF STEP COMPLETED  7.000E-02
 STEP TIME COMPLETED        62.0    ,  TOTAL TIME COMPLETED        7.262E+03


  INCREMENT     8 STARTS. ATTEMPT NUMBER  1, TIME INCREMENT   8.85    
 
	UNSYMMETRIC NEW DIRECT SPARSE SOLVER RUNNING ON
 	1 HOST x 1 MPI RANK PER HOST x 6 THREADS PER RANK
        NUMBER OF EQUATIONS:  172632
        NUMBER OF RHS:        1
        NUMBER OF FLOPS:      1.917e+11
        SOLVER ELAPSED TIME:  1.2s

               CONVERGENCE CHECKS FOR EQUILIBRIUM ITERATION     1


 AVERAGE FORCE                      0.666       TIME AVG. FORCE       0.381    
 LARGEST SCALED RESIDUAL FORCE     -0.190       AT NODE      17588   DOF  2
   INSTANCE: SH115                                                                           
  CORRESPONDING RESIDUAL FORCE     -0.190    
 LARGEST INCREMENT OF DISP.         2.213E-05   AT NODE         11   DOF  2
   INSTANCE: SH115                                                                           
[...]

 ITERATION SUMMARY FOR THE INCREMENT:   2 TOTAL ITERATIONS, OF WHICH
   0 ARE SEVERE DISCONTINUITY ITERATIONS AND  2 ARE EQUILIBRIUM ITERATIONS.

 TIME INCREMENT COMPLETED   8.85    ,  FRACTION OF STEP COMPLETED  0.950    
 STEP TIME COMPLETED        841.    ,  TOTAL TIME COMPLETED        8.041E+03


  INCREMENT   101 STARTS. ATTEMPT NUMBER  1, TIME INCREMENT   8.85    
 
	UNSYMMETRIC NEW DIRECT SPARSE SOLVER RUNNING ON
 	1 HOST x 1 MPI RANK PER HOST x 6 THREADS PER RANK
        NUMBER OF EQUATIONS:  172632
        NUMBER OF RHS:        1
        NUMBER OF FLOPS:      1.917e+11
        SOLVER ELAPSED TIME:  1.2s

               CONVERGENCE CHECKS FOR EQUILIBRIUM ITERATION     1


 AVERAGE FORCE                       1.47       TIME AVG. FORCE        1.27    
 LARGEST SCALED RESIDUAL FORCE      3.905E-02   AT NODE      10958   DOF  2
   INSTANCE: SH115                                                                           
  CORRESPONDING RESIDUAL FORCE      3.905E-02
 LARGEST INCREMENT OF DISP.         2.659E-05   AT NODE         56   DOF  2
   INSTANCE: SH115                                                                           
 LARGEST CORRECTION TO DISP.        6.003E-08   AT NODE       1245   DOF  1
   INSTANCE: SH115                                                                           
          FORCE     EQUILIBRIUM NOT ACHIEVED WITHIN TOLERANCE.

 AVERAGE HEAT FLUX                  1.365E-15   TIME AVG. HEAT FLUX   1.000E-02
 LARGEST RESIDUAL HEAT FLUX        -1.838E-16   AT NODE      24352   DOF 11
   INSTANCE: SH115                                                                           
 LARGEST INCREMENT OF TEMP.         3.328E-02   AT NODE       5650   DOF 11
   INSTANCE: SH115                                                                           
 LARGEST CORRECTION TO TEMP.        3.362E-03   AT NODE      13526   DOF 11
   INSTANCE: SH115                                                                           
          THERE IS ZERO HEAT FLUX EVERYWHERE
 

 ***WARNING: THERE IS ZERO HEAT FLUX EVERYWHERE IN THE MODEL BASED ON THE 
             DEFAULT CRITERION. PLEASE CHECK THE VALUE OF THE AVERAGE HEAT FLUX 
             DURING THE CURRENT ITERATION TO VERIFY THAT THE HEAT FLUX IS SMALL 
             ENOUGH TO BE TREATED AS ZERO. IF NOT, PLEASE USE THE SOLUTION 
             CONTROLS TO RESET THE CRITERION FOR ZERO HEAT FLUX.
 
	UNSYMMETRIC NEW DIRECT SPARSE SOLVER RUNNING ON
 	1 HOST x 1 MPI RANK PER HOST x 6 THREADS PER RANK
        NUMBER OF EQUATIONS:  172632
        NUMBER OF RHS:        1
        NUMBER OF FLOPS:      1.917e+11
        SOLVER ELAPSED TIME:  1.2s

               CONVERGENCE CHECKS FOR EQUILIBRIUM ITERATION     2


 AVERAGE FORCE                       1.47       TIME AVG. FORCE        1.27    
 LARGEST SCALED RESIDUAL FORCE     -3.462E-03   AT NODE      25419   DOF  2
   INSTANCE: SH115                                                                           
  CORRESPONDING RESIDUAL FORCE     -3.462E-03
 LARGEST INCREMENT OF DISP.         2.659E-05   AT NODE         56   DOF  2
   INSTANCE: SH115                                                                           
 LARGEST CORRECTION TO DISP.       -6.879E-09   AT NODE       7591   DOF  2
   INSTANCE: SH115                                                                           
          THE FORCE     EQUILIBRIUM EQUATIONS HAVE CONVERGED

 AVERAGE HEAT FLUX                  1.365E-15   TIME AVG. HEAT FLUX   1.000E-02
 LARGEST RESIDUAL HEAT FLUX         2.344E-17   AT NODE      33476   DOF 11
   INSTANCE: SH115                                                                           
 LARGEST INCREMENT OF TEMP.         3.325E-02   AT NODE       5650   DOF 11
   INSTANCE: SH115                                                                           
 LARGEST CORRECTION TO TEMP.       -4.828E-04   AT NODE      12366   DOF 11
   INSTANCE: SH115                                                                           
          THERE IS ZERO HEAT FLUX EVERYWHERE
 

 ***WARNING: THERE IS ZERO HEAT FLUX EVERYWHERE IN THE MODEL BASED ON THE 
             DEFAULT CRITERION. PLEASE CHECK THE VALUE OF THE AVERAGE HEAT FLUX 
             DURING THE CURRENT ITERATION TO VERIFY THAT THE HEAT FLUX IS SMALL 
             ENOUGH TO BE TREATED AS ZERO. IF NOT, PLEASE USE THE SOLUTION 
             CONTROLS TO RESET THE CRITERION FOR ZERO HEAT FLUX.

 MAXIMUM NON-PRESCRIBED INCREMENT IN TEMPERATURE IS   3.325E-02

 ITERATION SUMMARY FOR THE INCREMENT:   2 TOTAL ITERATIONS, OF WHICH
   0 ARE SEVERE DISCONTINUITY ITERATIONS AND  2 ARE EQUILIBRIUM ITERATIONS.

 TIME INCREMENT COMPLETED   8.85    ,  FRACTION OF STEP COMPLETED  0.960    
 STEP TIME COMPLETED        850.    ,  TOTAL TIME COMPLETED        8.050E+03


  INCREMENT   102 STARTS. ATTEMPT NUMBER  1, TIME INCREMENT   8.85    
 
	UNSYMMETRIC NEW DIRECT SPARSE SOLVER RUNNING ON
 	1 HOST x 1 MPI RANK PER HOST x 6 THREADS PER RANK
        NUMBER OF EQUATIONS:  172632
        NUMBER OF RHS:        1
        NUMBER OF FLOPS:      1.917e+11
        SOLVER ELAPSED TIME:  1.2s

               CONVERGENCE CHECKS FOR EQUILIBRIUM ITERATION     1


 AVERAGE FORCE                       1.47       TIME AVG. FORCE        1.27    
 LARGEST SCALED RESIDUAL FORCE     -5.755E-03   AT NODE      39018   DOF  3
   INSTANCE: SH115                                                                           
  CORRESPONDING RESIDUAL FORCE     -5.755E-03
 LARGEST INCREMENT OF DISP.         2.661E-05   AT NODE         56   DOF  2
   INSTANCE: SH115                                                                           
 LARGEST CORRECTION TO DISP.        4.819E-08   AT NODE      12771   DOF  2
   INSTANCE: SH115                                                                           
          THE FORCE     EQUILIBRIUM EQUATIONS HAVE CONVERGED

 AVERAGE HEAT FLUX                  1.371E-15   TIME AVG. HEAT FLUX   1.000E-02
 LARGEST RESIDUAL HEAT FLUX        -1.766E-16   AT NODE      24352   DOF 11
   INSTANCE: SH115                                                                           
 LARGEST INCREMENT OF TEMP.         3.328E-02   AT NODE       5650   DOF 11
   INSTANCE: SH115                                                                           
 LARGEST CORRECTION TO TEMP.        3.562E-03   AT NODE      13526   DOF 11
   INSTANCE: SH115                                                                           
          THERE IS ZERO HEAT FLUX EVERYWHERE
 

 ***WARNING: THERE IS ZERO HEAT FLUX EVERYWHERE IN THE MODEL BASED ON THE 
             DEFAULT CRITERION. PLEASE CHECK THE VALUE OF THE AVERAGE HEAT FLUX 
             DURING THE CURRENT ITERATION TO VERIFY THAT THE HEAT FLUX IS SMALL 
             ENOUGH TO BE TREATED AS ZERO. IF NOT, PLEASE USE THE SOLUTION 
             CONTROLS TO RESET THE CRITERION FOR ZERO HEAT FLUX.

 MAXIMUM NON-PRESCRIBED INCREMENT IN TEMPERATURE IS   3.328E-02

 ITERATION SUMMARY FOR THE INCREMENT:   1 TOTAL ITERATIONS, OF WHICH
   0 ARE SEVERE DISCONTINUITY ITERATIONS AND  1 ARE EQUILIBRIUM ITERATIONS.

 TIME INCREMENT COMPLETED   8.85    ,  FRACTION OF STEP COMPLETED  0.970    
 STEP TIME COMPLETED        858.    ,  TOTAL TIME COMPLETED        8.058E+03


  INCREMENT   103 STARTS. ATTEMPT NUMBER  1, TIME INCREMENT   8.85    
 
	UNSYMMETRIC NEW DIRECT SPARSE SOLVER RUNNING ON
 	1 HOST x 1 MPI RANK PER HOST x 6 THREADS PER RANK
        NUMBER OF EQUATIONS:  172632
        NUMBER OF RHS:        1
        NUMBER OF FLOPS:      1.917e+11
        SOLVER ELAPSED TIME:  1.2s

               CONVERGENCE CHECKS FOR EQUILIBRIUM ITERATION     1


 AVERAGE FORCE                       1.48       TIME AVG. FORCE        1.28    
 LARGEST SCALED RESIDUAL FORCE     -7.569E-03   AT NODE      30164   DOF  2
   INSTANCE: SH115                                                                           
  CORRESPONDING RESIDUAL FORCE     -7.569E-03
 LARGEST INCREMENT OF DISP.         2.663E-05   AT NODE         56   DOF  2
   INSTANCE: SH115                                                                           
 LARGEST CORRECTION TO DISP.       -4.521E-08   AT NODE        309   DOF  1
   INSTANCE: SH115                                                                           
          FORCE     EQUILIBRIUM NOT ACHIEVED WITHIN TOLERANCE.

 AVERAGE HEAT FLUX                  1.376E-15   TIME AVG. HEAT FLUX   1.000E-02
 LARGEST RESIDUAL HEAT FLUX        -1.646E-16   AT NODE      24352   DOF 11
   INSTANCE: SH115                                                                           
 LARGEST INCREMENT OF TEMP.         3.265E-02   AT NODE       5650   DOF 11
   INSTANCE: SH115                                                                           
 LARGEST CORRECTION TO TEMP.        4.341E-03   AT NODE      13526   DOF 11
   INSTANCE: SH115                                                                           
          THERE IS ZERO HEAT FLUX EVERYWHERE
 

 ***WARNING: THERE IS ZERO HEAT FLUX EVERYWHERE IN THE MODEL BASED ON THE 
             DEFAULT CRITERION. PLEASE CHECK THE VALUE OF THE AVERAGE HEAT FLUX 
             DURING THE CURRENT ITERATION TO VERIFY THAT THE HEAT FLUX IS SMALL 
             ENOUGH TO BE TREATED AS ZERO. IF NOT, PLEASE USE THE SOLUTION 
             CONTROLS TO RESET THE CRITERION FOR ZERO HEAT FLUX.
 
	UNSYMMETRIC NEW DIRECT SPARSE SOLVER RUNNING ON
 	1 HOST x 1 MPI RANK PER HOST x 6 THREADS PER RANK
        NUMBER OF EQUATIONS:  172632
        NUMBER OF RHS:        1
        NUMBER OF FLOPS:      1.917e+11
        SOLVER ELAPSED TIME:  1.2s

               CONVERGENCE CHECKS FOR EQUILIBRIUM ITERATION     2


 AVERAGE FORCE                       1.48       TIME AVG. FORCE        1.28    
 LARGEST SCALED RESIDUAL FORCE     -1.257E-03   AT NODE      32025   DOF  1
   INSTANCE: SH115                                                                           
  CORRESPONDING RESIDUAL FORCE     -1.257E-03
 LARGEST INCREMENT OF DISP.         2.663E-05   AT NODE         56   DOF  2
   INSTANCE: SH115                                                                           
 LARGEST CORRECTION TO DISP.       -3.900E-09   AT NODE      12368   DOF  2
   INSTANCE: SH115                                                                           
          THE FORCE     EQUILIBRIUM EQUATIONS HAVE CONVERGED

 AVERAGE HEAT FLUX                  1.376E-15   TIME AVG. HEAT FLUX   1.000E-02
 LARGEST RESIDUAL HEAT FLUX         1.796E-17   AT NODE      33476   DOF 11
   INSTANCE: SH115                                                                           
 LARGEST INCREMENT OF TEMP.         3.254E-02   AT NODE       5650   DOF 11
   INSTANCE: SH115                                                                           
 LARGEST CORRECTION TO TEMP.       -3.589E-04   AT NODE       5135   DOF 11
   INSTANCE: SH115                                                                           
          THERE IS ZERO HEAT FLUX EVERYWHERE
 

 ***WARNING: THERE IS ZERO HEAT FLUX EVERYWHERE IN THE MODEL BASED ON THE 
             DEFAULT CRITERION. PLEASE CHECK THE VALUE OF THE AVERAGE HEAT FLUX 
             DURING THE CURRENT ITERATION TO VERIFY THAT THE HEAT FLUX IS SMALL 
             ENOUGH TO BE TREATED AS ZERO. IF NOT, PLEASE USE THE SOLUTION 
             CONTROLS TO RESET THE CRITERION FOR ZERO HEAT FLUX.

 MAXIMUM NON-PRESCRIBED INCREMENT IN TEMPERATURE IS   3.254E-02

 ITERATION SUMMARY FOR THE INCREMENT:   2 TOTAL ITERATIONS, OF WHICH
   0 ARE SEVERE DISCONTINUITY ITERATIONS AND  2 ARE EQUILIBRIUM ITERATIONS.

 TIME INCREMENT COMPLETED   8.85    ,  FRACTION OF STEP COMPLETED  0.980    
 STEP TIME COMPLETED        867.    ,  TOTAL TIME COMPLETED        8.067E+03


  INCREMENT   104 STARTS. ATTEMPT NUMBER  1, TIME INCREMENT   8.85    
 
	UNSYMMETRIC NEW DIRECT SPARSE SOLVER RUNNING ON
 	1 HOST x 1 MPI RANK PER HOST x 6 THREADS PER RANK
        NUMBER OF EQUATIONS:  172632
        NUMBER OF RHS:        1
        NUMBER OF FLOPS:      1.917e+11
        SOLVER ELAPSED TIME:  1.2s

               CONVERGENCE CHECKS FOR EQUILIBRIUM ITERATION     1


 AVERAGE FORCE                       1.48       TIME AVG. FORCE        1.28    
 LARGEST SCALED RESIDUAL FORCE     -9.940E-03   AT NODE      13775   DOF  3
   INSTANCE: SH115                                                                           
  CORRESPONDING RESIDUAL FORCE     -9.940E-03
 LARGEST INCREMENT OF DISP.         2.665E-05   AT NODE         56   DOF  2
   INSTANCE: SH115                                                                           
 LARGEST CORRECTION TO DISP.        5.044E-08   AT NODE      12771   DOF  2
   INSTANCE: SH115                                                                           
          FORCE     EQUILIBRIUM NOT ACHIEVED WITHIN TOLERANCE.

 AVERAGE HEAT FLUX                  1.382E-15   TIME AVG. HEAT FLUX   1.000E-02
 LARGEST RESIDUAL HEAT FLUX        -1.950E-16   AT NODE      24352   DOF 11
   INSTANCE: SH115                                                                           
 LARGEST INCREMENT OF TEMP.         3.244E-02   AT NODE       5650   DOF 11
   INSTANCE: SH115                                                                           
 LARGEST CORRECTION TO TEMP.        3.711E-03   AT NODE      13526   DOF 11
   INSTANCE: SH115                                                                           
          THERE IS ZERO HEAT FLUX EVERYWHERE
 

 ***WARNING: THERE IS ZERO HEAT FLUX EVERYWHERE IN THE MODEL BASED ON THE 
             DEFAULT CRITERION. PLEASE CHECK THE VALUE OF THE AVERAGE HEAT FLUX 
             DURING THE CURRENT ITERATION TO VERIFY THAT THE HEAT FLUX IS SMALL 
             ENOUGH TO BE TREATED AS ZERO. IF NOT, PLEASE USE THE SOLUTION 
             CONTROLS TO RESET THE CRITERION FOR ZERO HEAT FLUX.
 
	UNSYMMETRIC NEW DIRECT SPARSE SOLVER RUNNING ON
 	1 HOST x 1 MPI RANK PER HOST x 6 THREADS PER RANK
        NUMBER OF EQUATIONS:  172632
        NUMBER OF RHS:        1
        NUMBER OF FLOPS:      1.917e+11
        SOLVER ELAPSED TIME:  1.3s

               CONVERGENCE CHECKS FOR EQUILIBRIUM ITERATION     2


 AVERAGE FORCE                       1.48       TIME AVG. FORCE        1.28    
 LARGEST SCALED RESIDUAL FORCE     -1.049E-03   AT NODE      27726   DOF  1
   INSTANCE: SH115                                                                           
  CORRESPONDING RESIDUAL FORCE     -1.049E-03
 LARGEST INCREMENT OF DISP.         2.665E-05   AT NODE         56   DOF  2
   INSTANCE: SH115                                                                           
 LARGEST CORRECTION TO DISP.       -4.344E-09   AT NODE      12880   DOF  2
   INSTANCE: SH115                                                                           
          THE FORCE     EQUILIBRIUM EQUATIONS HAVE CONVERGED

 AVERAGE HEAT FLUX                  1.382E-15   TIME AVG. HEAT FLUX   1.000E-02
 LARGEST RESIDUAL HEAT FLUX         1.953E-17   AT NODE      33476   DOF 11
   INSTANCE: SH115                                                                           
 LARGEST INCREMENT OF TEMP.         3.234E-02   AT NODE       5650   DOF 11
   INSTANCE: SH115                                                                           
 LARGEST CORRECTION TO TEMP.       -4.465E-04   AT NODE      12366   DOF 11
   INSTANCE: SH115                                                                           
          THERE IS ZERO HEAT FLUX EVERYWHERE
 

 ***WARNING: THERE IS ZERO HEAT FLUX EVERYWHERE IN THE MODEL BASED ON THE 
             DEFAULT CRITERION. PLEASE CHECK THE VALUE OF THE AVERAGE HEAT FLUX 
             DURING THE CURRENT ITERATION TO VERIFY THAT THE HEAT FLUX IS SMALL 
             ENOUGH TO BE TREATED AS ZERO. IF NOT, PLEASE USE THE SOLUTION 
             CONTROLS TO RESET THE CRITERION FOR ZERO HEAT FLUX.

 MAXIMUM NON-PRESCRIBED INCREMENT IN TEMPERATURE IS   3.234E-02

 ITERATION SUMMARY FOR THE INCREMENT:   2 TOTAL ITERATIONS, OF WHICH
   0 ARE SEVERE DISCONTINUITY ITERATIONS AND  2 ARE EQUILIBRIUM ITERATIONS.

 TIME INCREMENT COMPLETED   8.85    ,  FRACTION OF STEP COMPLETED  0.990    
 STEP TIME COMPLETED        876.    ,  TOTAL TIME COMPLETED        8.076E+03


  INCREMENT   105 STARTS. ATTEMPT NUMBER  1, TIME INCREMENT   8.85    
 
	UNSYMMETRIC NEW DIRECT SPARSE SOLVER RUNNING ON
 	1 HOST x 1 MPI RANK PER HOST x 6 THREADS PER RANK
        NUMBER OF EQUATIONS:  172632
        NUMBER OF RHS:        1
        NUMBER OF FLOPS:      1.917e+11
        SOLVER ELAPSED TIME:  1.2s

               CONVERGENCE CHECKS FOR EQUILIBRIUM ITERATION     1


 AVERAGE FORCE                       1.48       TIME AVG. FORCE        1.28    
 LARGEST SCALED RESIDUAL FORCE      5.668E-03   AT NODE      24286   DOF  2
   INSTANCE: SH115                                                                           
  CORRESPONDING RESIDUAL FORCE      5.668E-03
 LARGEST INCREMENT OF DISP.         2.666E-05   AT NODE         56   DOF  2
   INSTANCE: SH115                                                                           
 LARGEST CORRECTION TO DISP.        4.592E-08   AT NODE      12771   DOF  2
   INSTANCE: SH115                                                                           
          THE FORCE     EQUILIBRIUM EQUATIONS HAVE CONVERGED

 AVERAGE HEAT FLUX                  1.387E-15   TIME AVG. HEAT FLUX   1.000E-02
 LARGEST RESIDUAL HEAT FLUX        -1.774E-16   AT NODE      24352   DOF 11
   INSTANCE: SH115                                                                           
 LARGEST INCREMENT OF TEMP.         3.292E-02   AT NODE      13005   DOF 11
   INSTANCE: SH115                                                                           
 LARGEST CORRECTION TO TEMP.        3.291E-03   AT NODE      34610   DOF 11
   INSTANCE: SH115                                                                           
          THERE IS ZERO HEAT FLUX EVERYWHERE
 

 ***WARNING: THERE IS ZERO HEAT FLUX EVERYWHERE IN THE MODEL BASED ON THE 
             DEFAULT CRITERION. PLEASE CHECK THE VALUE OF THE AVERAGE HEAT FLUX 
             DURING THE CURRENT ITERATION TO VERIFY THAT THE HEAT FLUX IS SMALL 
             ENOUGH TO BE TREATED AS ZERO. IF NOT, PLEASE USE THE SOLUTION 
             CONTROLS TO RESET THE CRITERION FOR ZERO HEAT FLUX.

 MAXIMUM NON-PRESCRIBED INCREMENT IN TEMPERATURE IS   3.292E-02

 ITERATION SUMMARY FOR THE INCREMENT:   1 TOTAL ITERATIONS, OF WHICH
   0 ARE SEVERE DISCONTINUITY ITERATIONS AND  1 ARE EQUILIBRIUM ITERATIONS.

 TIME INCREMENT COMPLETED   8.85    ,  FRACTION OF STEP COMPLETED   1.00    
 STEP TIME COMPLETED        885.    ,  TOTAL TIME COMPLETED        8.085E+03


          THE ANALYSIS HAS BEEN COMPLETED



     ANALYSIS SUMMARY:
     TOTAL OF        110  INCREMENTS
                       1  CUTBACKS IN AUTOMATIC INCREMENTATION
                     236  ITERATIONS INCLUDING CONTACT ITERATIONS IF PRESENT
                     236  PASSES THROUGH THE EQUATION SOLVER OF WHICH 
                     236  INVOLVE MATRIX DECOMPOSITION, INCLUDING
                       0  DECOMPOSITION(S) OF THE MASS MATRIX
                       1  REORDERING OF EQUATIONS TO MINIMIZE WAVEFRONT
                       0  ADDITIONAL RESIDUAL EVALUATIONS FOR LINE SEARCHES
                       0  ADDITIONAL OPERATOR EVALUATIONS FOR LINE SEARCHES
                       6  WARNING MESSAGES DURING USER INPUT PROCESSING
                 7094557  WARNING MESSAGES DURING ANALYSIS
                 7094321  ANALYSIS WARNINGS ARE NUMERICAL PROBLEM MESSAGES
                       0  ANALYSIS WARNINGS ARE NEGATIVE EIGENVALUE MESSAGES
                       0  ERROR MESSAGES



     JOB TIME SUMMARY
       USER TIME (SEC)      =     2.24E+03
       SYSTEM TIME (SEC)    =     1.75E+02
       TOTAL CPU TIME (SEC) =     2.41E+03
       WALLCLOCK TIME (SEC) =         1129
       MEMORY PEAK (GB)     =            1
