 Abaqus/Standard 2023.HF4                  DATE 29-Oct-2024 TIME 12:45:28
 SUMMARY OF JOB INFORMATION:
 STEP  INC ATT SEVERE EQUIL TOTAL  TOTAL      STEP       INC OF       DOF    IF
               DISCON ITERS ITERS  TIME/    TIME/LPF    TIME/LPF    MONITOR RIKS
               ITERS               FREQ
   1     1   1     0     1     1  1.44e+03   1.44e+03   1440.     
   1     2   1     0     1     1  2.88e+03   2.88e+03   1440.     
   1     3   1     0     1     1  4.32e+03   4.32e+03   1440.     
   1     4   1     0     1     1  5.76e+03   5.76e+03   1440.     
   1     5   1     0     1     1  7.20e+03   7.20e+03   1440.     
   2     1   1     0     2     2  7.21e+03   8.85       8.850     
   2     2   1     0     1     1  7.22e+03   17.7       8.850     
   2     3   1     0     1     1  7.23e+03   26.5       8.850     
   2     4   1     0     2     2  7.24e+03   35.4       8.850     
   2     5   1     0     3     3  7.24e+03   44.2       8.850     
   2     6   1     0     3     3  7.25e+03   53.1       8.850     
   2     7   1     0     3     3  7.26e+03   62.0       8.850     
   2     8   1     0     3     3  7.27e+03   70.8       8.850     
   2     9   1     0     3     3  7.28e+03   79.6       8.850     
   2    10   1     0     3     3  7.29e+03   88.5       8.850     
   2    11   1     0     3     3  7.30e+03   97.3       8.850     
   2    12   1     0     4     4  7.31e+03   106.       8.850     
   2    13   1     0     3     3  7.32e+03   115.       8.850     
   2    14   1     0     3     3  7.32e+03   124.       8.850     
   2    15   1     0     3     3  7.33e+03   133.       8.850     
   2    16   1     0     2     2  7.34e+03   142.       8.850     
   2    17   1     0     2     2  7.35e+03   150.       8.850     
   2    18   1     0     2     2  7.36e+03   159.       8.850     
   2    19   1     0     3     3  7.37e+03   168.       8.850     
   2    20   1     0     2     2  7.38e+03   177.       8.850     
   2    21   1     0     2     2  7.39e+03   186.       8.850     
   2    22   1     0     2     2  7.39e+03   195.       8.850     
   2    23   1     0     2     2  7.40e+03   204.       8.850     
   2    24   1     0     1     1  7.41e+03   207.       3.450     
   2    25   1     0     1     1  7.41e+03   212.       5.400     
   2    26   1     0     2     2  7.42e+03   221.       8.850     
   2    27   1     0     2     2  7.43e+03   230.       8.850     
   2    28   1     0     2     2  7.44e+03   239.       8.850     
   2    29   1     0     2     2  7.45e+03   248.       8.850     
   2    30   1     0     2     2  7.46e+03   257.       8.850     
   2    31   1     0     2     2  7.47e+03   266.       8.850     
   2    32   1     0     2     2  7.47e+03   274.       8.850     
   2    33   1     0     2     2  7.48e+03   283.       8.850     
   2    34   1     0     2     2  7.49e+03   292.       8.850     
   2    35   1     0     2     2  7.50e+03   301.       8.850     
   2    36   1     0     2     2  7.51e+03   310.       8.850     
   2    37   1     0     2     2  7.52e+03   319.       8.850     
   2    38   1     0     2     2  7.53e+03   327.       8.850     
   2    39   1     0     2     2  7.54e+03   336.       8.850     
   2    40   1     0     2     2  7.55e+03   345.       8.850     
   2    41   1     0     3     3  7.55e+03   354.       8.850     
   2    42   1     0     2     2  7.56e+03   363.       8.850     
   2    43   1     0     2     2  7.57e+03   372.       8.850     
   2    44   1     0     2     2  7.58e+03   381.       8.850     
   2    45   1     0     2     2  7.59e+03   389.       8.850     
   2    46   1     0     2     2  7.60e+03   398.       8.850     
   2    47   1     0     2     2  7.61e+03   407.       8.850     
   2    48   1     0     2     2  7.62e+03   416.       8.850     
   2    49   1     0     2     2  7.62e+03   425.       8.850     
   2    50   1     0     2     2  7.63e+03   434.       8.850     
   2    51   1     0     2     2  7.64e+03   443.       8.850     
   2    52   1     0     2     2  7.65e+03   451.       8.850     
   2    53   1     0     2     2  7.66e+03   460.       8.850     
   2    54   1     0     2     2  7.67e+03   469.       8.850     
   2    55   1     0     2     2  7.68e+03   478.       8.850     
   2    56   1     0     2     2  7.69e+03   487.       8.850     
   2    57   1     0     2     2  7.70e+03   496.       8.850     
   2    58   1     0     2     2  7.70e+03   504.       8.850     
   2    59   1     0     2     2  7.71e+03   513.       8.850     
   2    60   1     0     2     2  7.72e+03   522.       8.850     
   2    61   1     0     2     2  7.73e+03   531.       8.850     
   2    62   1     0     2     2  7.74e+03   540.       8.850     
   2    63   1     0     2     2  7.75e+03   549.       8.850     
   2    64   1     0     2     2  7.76e+03   558.       8.850     
   2    65   1     0     2     2  7.77e+03   566.       8.850     
   2    66   1     0     2     2  7.78e+03   575.       8.850     
   2    67   1     0     1     1  7.78e+03   576.       0.7500    
   2    68   1     0     1     1  7.78e+03   584.       8.100     
   2    69   1     0     2     2  7.79e+03   593.       8.850     
   2    70   1     0     2     2  7.80e+03   602.       8.850     
   2    71   1     0     2     2  7.81e+03   611.       8.850     
   2    72   1     0     2     2  7.82e+03   620.       8.850     
   2    73   1     0     2     2  7.83e+03   628.       8.850     
   2    74   1     0     2     2  7.84e+03   637.       8.850     
   2    75   1     0     3     3  7.85e+03   646.       8.850     
   2    76   1     0     3     3  7.85e+03   655.       8.850     
   2    77   1     0     3     3  7.86e+03   664.       8.850     
   2    78   1     0     3     3  7.87e+03   673.       8.850     
   2    79   1     0     3     3  7.88e+03   681.       8.850     
   2    80   1     0     3     3  7.89e+03   690.       8.850     
   2    81   1     0     3     3  7.90e+03   699.       8.850     
   2    82   1     0     3     3  7.91e+03   708.       8.850     
   2    83   1     0     3     3  7.92e+03   717.       8.850     
   2    84   1     0     3     3  7.93e+03   726.       8.850     
   2    85   1     0     3     3  7.93e+03   735.       8.850     
   2    86   1     0     3     3  7.94e+03   743.       8.850     
   2    87   1     0     3     3  7.95e+03   752.       8.850     
   2    88   1     0     3     3  7.96e+03   761.       8.850     
   2    89   1     0     2     2  7.97e+03   770.       8.850     
   2    90   1     0     2     2  7.98e+03   779.       8.850     
   2    91   1     0     2     2  7.99e+03   788.       8.850     
   2    92   1     0     2     2  7.99e+03   794.       6.350     
   2    93   1     0     1     1  8.00e+03   796.       2.500     
   2    94   1     0     1     1  8.01e+03   805.       8.850     
   2    95   1     0     2     2  8.01e+03   814.       8.850     
   2    96   1U    0     5     5  8.01e+03   814.       8.850     
   2    96   2     0     1     1  8.02e+03   816.       2.212     
   2    97   1     0     1     1  8.02e+03   821.       4.425     
   2    98   1     0     1     1  8.02e+03   823.       2.212     
   2    99   1     0     3     3  8.03e+03   832.       8.850     
   2   100   1     0     2     2  8.04e+03   841.       8.850     
   2   101   1     0     2     2  8.05e+03   850.       8.850     
   2   102   1     0     1     1  8.06e+03   858.       8.850     
   2   103   1     0     2     2  8.07e+03   867.       8.850     
   2   104   1     0     2     2  8.08e+03   876.       8.850     
   2   105   1     0     1     1  8.09e+03   885.       8.850     
                          
 THE ANALYSIS HAS COMPLETED SUCCESSFULLY
