 Abaqus/Standard 2023.HF4                  DATE 30-Jun-2024 TIME 21:58:32
 SUMMARY OF JOB INFORMATION:
 STEP  INC ATT SEVERE EQUIL TOTAL  TOTAL      STEP       INC OF       DOF    IF
               DISCON ITERS ITERS  TIME/    TIME/LPF    TIME/LPF    MONITOR RIKS
               ITERS               FREQ
   1     1   1     0     4     4  10.0       10.0       10.00     
   1     2   1     0     4     4  20.0       20.0       10.00     
   1     3   1     0     2     2  30.0       30.0       10.00     
   1     4   1     0     1     1  40.0       40.0       10.00     
   1     5   1     0     1     1  50.0       50.0       10.00     
   1     6   1     0     1     1  60.0       60.0       10.00     
   1     7   1     0     1     1  70.0       70.0       10.00     
   1     8   1     0     1     1  80.0       80.0       10.00     
   1     9   1     0     1     1  90.0       90.0       10.00     
   1    10   1     0     1     1  100.       100.       10.00     
   1    11   1     0     1     1  110.       110.       10.00     
   1    12   1     0     1     1  120.       120.       10.00     
   1    13   1     0     2     2  130.       130.       10.00     
   1    14   1     0     2     2  140.       140.       10.00     
   1    15   1     0     2     2  150.       150.       10.00     
   1    16   1     0     2     2  160.       160.       10.00     
   1    17   1     0     2     2  170.       170.       10.00     
   1    18   1     0     2     2  180.       180.       10.00     
   1    19   1     0     2     2  190.       190.       10.00     
   1    20   1     0     2     2  200.       200.       10.00     
   1    21   1     0     1     1  210.       210.       10.00     
   1    22   1     0     1     1  220.       220.       10.00     
   1    23   1     0     2     2  230.       230.       10.00     
   1    24   1     0     2     2  240.       240.       10.00     
   1    25   1     0     2     2  250.       250.       10.00     
   1    26   1     0     2     2  260.       260.       10.00     
   1    27   1     0     2     2  270.       270.       10.00     
   1    28   1     0     2     2  280.       280.       10.00     
   1    29   1     0     2     2  290.       290.       10.00     
   1    30   1     0     2     2  300.       300.       10.00     
   1    31   1     0     2     2  310.       310.       10.00     
   1    32   1     0     2     2  320.       320.       10.00     
   1    33   1     0     2     2  330.       330.       10.00     
   1    34   1     0     2     2  340.       340.       10.00     
   1    35   1     0     2     2  350.       350.       10.00     
   1    36   1     0     2     2  360.       360.       10.00     
   1    37   1     0     2     2  370.       370.       10.00     
   1    38   1     0     2     2  380.       380.       10.00     
   1    39   1     0     2     2  390.       390.       10.00     
   1    40   1     0     2     2  400.       400.       10.00     
   1    41   1     0     2     2  410.       410.       10.00     
   1    42   1     0     2     2  420.       420.       10.00     
   1    43   1     0     2     2  430.       430.       10.00     
   1    44   1     0     2     2  440.       440.       10.00     
   1    45   1     0     2     2  450.       450.       10.00     
   1    46   1     0     2     2  460.       460.       10.00     
   1    47   1     0     2     2  470.       470.       10.00     
   1    48   1     0     2     2  480.       480.       10.00     
   1    49   1     0     2     2  490.       490.       10.00     
   1    50   1     0     2     2  500.       500.       10.00     
   1    51   1     0     2     2  510.       510.       10.00     
   1    52   1     0     2     2  520.       520.       10.00     
   1    53   1     0     2     2  530.       530.       10.00     
   1    54   1     0     2     2  540.       540.       10.00     
   1    55   1     0     2     2  550.       550.       10.00     
   1    56   1     0     2     2  560.       560.       10.00     
   1    57   1     0     2     2  570.       570.       10.00     
   1    58   1     0     2     2  580.       580.       10.00     
   1    59   1     0     2     2  590.       590.       10.00     
   1    60   1     0     2     2  600.       600.       10.00     
   1    61   1     0     2     2  610.       610.       10.00     
   1    62   1     0     2     2  620.       620.       10.00     
   1    63   1     0     2     2  630.       630.       10.00     
   1    64   1     0     2     2  640.       640.       10.00     
   1    65   1     0     2     2  650.       650.       10.00     
   1    66   1     0     2     2  660.       660.       10.00     
   1    67   1     0     2     2  670.       670.       10.00     
   1    68   1     0     2     2  680.       680.       10.00     
   1    69   1     0     2     2  690.       690.       10.00     
   1    70   1     0     2     2  700.       700.       10.00     
   1    71   1     0     2     2  710.       710.       10.00     
   1    72   1     0     1     1  720.       720.       10.00     
   1    73   1     0     1     1  730.       730.       10.00     
   1    74   1     0     1     1  740.       740.       10.00     
   1    75   1     0     1     1  750.       750.       10.00     
   1    76   1     0     1     1  760.       760.       10.00     
   1    77   1     0     1     1  770.       770.       10.00     
   1    78   1     0     1     1  780.       780.       10.00     
   1    79   1     0     1     1  790.       790.       10.00     
   1    80   1     0     1     1  800.       800.       10.00     
   1    81   1     0     1     1  810.       810.       10.00     
   1    82   1     0     1     1  820.       820.       10.00     
   1    83   1     0     1     1  830.       830.       10.00     
   1    84   1     0     1     1  840.       840.       10.00     
   1    85   1     0     1     1  850.       850.       10.00     
   1    86   1     0     1     1  860.       860.       10.00     
   1    87   1     0     1     1  870.       870.       10.00     
   1    88   1     0     1     1  880.       880.       10.00     
   1    89   1     0     1     1  890.       890.       10.00     
   1    90   1     0     1     1  900.       900.       10.00     
   1    91   1     0     1     1  910.       910.       10.00     
   1    92   1     0     1     1  920.       920.       10.00     
   1    93   1     0     1     1  930.       930.       10.00     
   1    94   1     0     1     1  940.       940.       10.00     
   1    95   1     0     1     1  950.       950.       10.00     
   1    96   1     0     1     1  960.       960.       10.00     
   1    97   1     0     1     1  970.       970.       10.00     
   1    98   1     0     1     1  980.       980.       10.00     
   1    99   1     0     1     1  990.       990.       10.00     
   1   100   1     0     1     1  1.00e+03   1.00e+03   10.00     
                          
 THE ANALYSIS HAS COMPLETED SUCCESSFULLY
