1

   Abaqus 2023.HF4                                  Date 30-Jun-2024   Time 21:58:31
   For use by AALTO UNIVERSITY under license from Dassault Systemes or its subsidiary.

                                                                                 
                                                                                 
 STEP    1     INCREMENT     1     STEP TIME    0.00    


                        S T E P       1     C O U P L E D - T E M P E R A T U R E - D I S P L A C E M E N T   A N A L Y S I S


                                                                                          

     AUTOMATIC TIME CONTROL WITH -
          A SUGGESTED INITIAL TIME INCREMENT OF                 10.0    
          AND A TOTAL TIME PERIOD OF                           1.000E+03
          THE MINIMUM TIME INCREMENT ALLOWED IS                1.000E-02
          THE MAXIMUM TIME INCREMENT ALLOWED IS                 10.0    

          CREEP AND SWELLING EFFECTS ARE OMITTED IN THIS STEP

     THE SIZE OF THE TIME INCREMENT IS CONTROLLED BY -
          THE TEMPERATURE CHANGE PER INCREMENT NOT EXCEEDING            1.00    
          THE RATE DEPENDENCY WILL BE CONSIDERED IN THIS STEP

          CREEP AND SWELLING EFFECTS WILL BE IGNORED.

 CONVERGENCE TOLERANCE PARAMETERS FOR FORCE    
     CRITERION FOR RESIDUAL FORCE     FOR A NONLINEAR PROBLEM          5.000E-03
     CRITERION FOR DISP.    CORRECTION IN A NONLINEAR PROBLEM          1.000E-02
     INITIAL VALUE OF TIME AVERAGE FORCE                               1.000E-02
     AVERAGE FORCE     IS TIME AVERAGE FORCE    
     ALTERNATE CRIT. FOR RESIDUAL FORCE     FOR A NONLINEAR PROBLEM    2.000E-02
     CRITERION FOR ZERO FORCE     RELATIVE TO TIME AVRG. FORCE         1.000E-05
     CRITERION FOR RESIDUAL FORCE     WHEN THERE IS ZERO FLUX          1.000E-05
     CRITERION FOR DISP.    CORRECTION WHEN THERE IS ZERO FLUX         1.000E-03
     CRITERION FOR RESIDUAL FORCE     FOR A LINEAR INCREMENT           1.000E-08
     FIELD CONVERSION RATIO                                             1.00    
     CRITERION FOR ZERO FORCE     REL. TO TIME AVRG. MAX. FORCE        1.000E-05
     CRITERION FOR ZERO DISP.    RELATIVE TO CHARACTERISTIC LENGTH     1.000E-08

 CONVERGENCE TOLERANCE PARAMETERS FOR HEAT FLUX
     CRITERION FOR RESIDUAL HEAT FLUX FOR A NONLINEAR PROBLEM          5.000E-03
     CRITERION FOR TEMP.    CORRECTION IN A NONLINEAR PROBLEM          1.000E-02
     INITIAL VALUE OF TIME AVERAGE HEAT FLUX                           1.000E-02
     AVERAGE HEAT FLUX IS TIME AVERAGE HEAT FLUX
     ALTERNATE CRIT. FOR RESIDUAL HEAT FLUX FOR A NONLINEAR PROBLEM    2.000E-02
     CRITERION FOR ZERO HEAT FLUX RELATIVE TO TIME AVRG. HEAT FLUX     1.000E-05
     CRITERION FOR RESIDUAL HEAT FLUX WHEN THERE IS ZERO FLUX          1.000E-05
     CRITERION FOR TEMP.    CORRECTION WHEN THERE IS ZERO FLUX         1.000E-03
     CRITERION FOR RESIDUAL HEAT FLUX FOR A LINEAR INCREMENT           1.000E-08
     FIELD CONVERSION RATIO                                             1.00    
     CRITERION FOR ZERO HEAT FLUX REL. TO TIME AVRG. MAX. HEAT FLUX    1.000E-05

     VOLUMETRIC STRAIN COMPATIBILITY TOLERANCE FOR HYBRID SOLIDS       1.000E-05
     AXIAL STRAIN COMPATIBILITY TOLERANCE FOR HYBRID BEAMS             1.000E-05
     TRANS. SHEAR STRAIN COMPATIBILITY TOLERANCE FOR HYBRID BEAMS      1.000E-05
     SOFT CONTACT CONSTRAINT COMPATIBILITY TOLERANCE FOR P>P0          5.000E-03
     SOFT CONTACT CONSTRAINT COMPATIBILITY TOLERANCE FOR P=0.0         0.100    
     CONTACT FORCE ERROR TOLERANCE FOR CONVERT SDI=YES                 1.00    
     DISPLACEMENT COMPATIBILITY TOLERANCE FOR DCOUP ELEMENTS           1.000E-05
     ROTATION COMPATIBILITY TOLERANCE FOR DCOUP ELEMENTS               1.000E-05

 EQUILIBRIUM WILL BE CHECKED FOR SEVERE DISCONTINUITY ITERATIONS

 TIME INCREMENTATION CONTROL PARAMETERS:
     FIRST EQUILIBRIUM ITERATION FOR CONSECUTIVE DIVERGENCE CHECK              4
     EQUILIBRIUM ITERATION AT WHICH LOG. CONVERGENCE RATE CHECK BEGINS         8
     EQUILIBRIUM ITERATION AFTER WHICH ALTERNATE RESIDUAL IS USED              9
     MAXIMUM EQUILIBRIUM ITERATIONS ALLOWED                                   16
     EQUILIBRIUM ITERATION COUNT FOR CUT-BACK IN NEXT INCREMENT               10
     MAXIMUM EQUILIB. ITERS IN TWO INCREMENTS FOR TIME INCREMENT INCREASE      4
     MAXIMUM ITERATIONS FOR SEVERE DISCONTINUITIES                            50
     MAXIMUM ATTEMPTS ALLOWED IN AN INCREMENT                                  5
     MAXIMUM DISCON. ITERS IN TWO INCREMENTS FOR TIME INCREMENT INCREASE      50
     MAXIMUM CONTACT AUGMENTATIONS FOR *SURFACE BEHAVIOR,AUGMENTED LAGRANGE   50
     CONSECUTIVE INCS MEETING TIME INTEG. TOL. FOR TIME INC. INCREASE          3
     CUT-BACK FACTOR AFTER DIVERGENCE                                 0.2500    
     CUT-BACK FACTOR FOR TOO SLOW CONVERGENCE                         0.5000    
     CUT-BACK FACTOR AFTER TOO MANY EQUILIBRIUM ITERATIONS            0.7500    
     CUT-BACK FACTOR AFTER TOO MANY SEVERE DISCONTINUITY ITERATIONS   0.2500    
     CUT-BACK FACTOR AFTER PROBLEMS IN ELEMENT ASSEMBLY               0.2500    
     INCREASE FACTOR AFTER TWO INCREMENTS THAT CONVERGE QUICKLY        1.500    
     MAX. TIME INCREMENT INCREASE FACTOR ALLOWED                       1.500    
     MAX. TIME INCREMENT INCREASE FACTOR ALLOWED (DYNAMICS)            1.250    
     MAX. TIME INCREMENT INCREASE FACTOR ALLOWED (DIFFUSION)           2.000    
     MINIMUM TIME INCREMENT RATIO FOR EXTRAPOLATION TO OCCUR          0.1000    
     CUT-BACK FACTOR WHEN TIME INTEGRATION ACCURACY TOL. EXCEEDED     0.8500    
     MAX. RATIO OF TIME INTEG. MEASURE TO TOL. FOR TIME INC. INCREASE 0.7500    
     INCREASE FACTOR FOR TIME INCREMENT WHEN POSSIBLE                 0.8000    
     MIN. TIME INC. INCREASE FACTOR IN LINEAR TRANSIENT PROBLEMS      0.9500    
     MAX. RATIO OF TIME INCREMENT TO STABILITY LIMIT                   1.000    
     FRACTION OF STABILITY LIMIT FOR NEW TIME INCREMENT               0.9500    
     TIME INCREMENT INCREASE FACTOR BEFORE A TIME POINT                1.000    
     GLOBAL STABILIZATION CONTROL IS NOT USED

          PRINT OF INCREMENT NUMBER, TIME, ETC., EVERY    1  INCREMENTS

     THE MAXIMUM NUMBER OF INCREMENTS IN THIS STEP IS                  100000

          LARGE DISPLACEMENT THEORY WILL BE USED

          UNSYMMETRIC MATRIX STORAGE AND SOLUTION WILL BE USED

     LINEAR EXTRAPOLATION WILL BE USED

     CHARACTERISTIC ELEMENT LENGTH     2.000E-03

     DETAILS REGARDING ACTUAL SOLUTION WAVEFRONT REQUESTED

     DETAILED OUTPUT OF DIAGNOSTICS TO DATABASE REQUESTED

     PRINT OF INCREMENT NUMBER, TIME, ETC., TO THE MESSAGE FILE EVERY     1  INCREMENTS

     ELEMENT OPERATIONS WILL BE CARRIED OUT IN PARALLEL USING   8 THREADS ON 1 DOMAIN

     PARALLEL CONTACT TRACKING ENABLED


     COLLECTING MODEL CONSTRAINT INFORMATION FOR OVERCONSTRAINT CHECKS

     COLLECTING STEP CONSTRAINT INFORMATION FOR OVERCONSTRAINT CHECKS


  INCREMENT     1 STARTS. ATTEMPT NUMBER  1, TIME INCREMENT   10.0    
 
     INITIAL ELEMENT LOAD BALANCE
            DOMAIN    1     THREAD    NUMBER OF ELEMENTS
                              1            120
                              2            88
                              3            112
                              4            120
                              5            160
                              6            136
                              7            136
                              8            128
 
	UNSYMMETRIC NEW DIRECT SPARSE SOLVER RUNNING ON
 	1 HOST x 1 MPI RANK PER HOST x 8 THREADS PER RANK
        NUMBER OF EQUATIONS:  3993
        NUMBER OF RHS:        1
        NUMBER OF FLOPS:      6.013e+08
        SOLVER ELAPSED TIME:  20ms

               CONVERGENCE CHECKS FOR EQUILIBRIUM ITERATION     1


 AVERAGE FORCE                       396.       TIME AVG. FORCE        396.    
 LARGEST SCALED RESIDUAL FORCE       386.       AT NODE       1209   DOF  3
   INSTANCE: CUBE-1                                                                          
  CORRESPONDING RESIDUAL FORCE       386.    
 LARGEST INCREMENT OF DISP.         1.000E-04   AT NODE          1   DOF  2
   INSTANCE: CUBE-1                                                                          
 LARGEST CORRECTION TO DISP.        1.000E-04   AT NODE          1   DOF  2
   INSTANCE: CUBE-1                                                                          
          FORCE     EQUILIBRIUM NOT ACHIEVED WITHIN TOLERANCE.

 AVERAGE HEAT FLUX                   0.00       TIME AVG. HEAT FLUX   1.000E-02
 ALL HEAT FLUX RESIDUALS ARE ZERO
 ALL TEMP.    INCREMENTS ARE ZERO
 ALL CORRECTION TO TEMP.    ARE ZERO
          THERE IS ZERO HEAT FLUX EVERYWHERE
 
	UNSYMMETRIC NEW DIRECT SPARSE SOLVER RUNNING ON
 	1 HOST x 1 MPI RANK PER HOST x 8 THREADS PER RANK
        NUMBER OF EQUATIONS:  3993
        NUMBER OF RHS:        1
        NUMBER OF FLOPS:      6.013e+08
        SOLVER ELAPSED TIME:  8ms

               CONVERGENCE CHECKS FOR EQUILIBRIUM ITERATION     2


 AVERAGE FORCE                       343.       TIME AVG. FORCE        343.    
 LARGEST SCALED RESIDUAL FORCE       163.       AT NODE        933   DOF  2
   INSTANCE: CUBE-1                                                                          
  CORRESPONDING RESIDUAL FORCE       163.    
 LARGEST INCREMENT OF DISP.         1.000E-04   AT NODE          1   DOF  2
   INSTANCE: CUBE-1                                                                          
 LARGEST CORRECTION TO DISP.       -5.323E-06   AT NODE        667   DOF  2
   INSTANCE: CUBE-1                                                                          
          FORCE     EQUILIBRIUM NOT ACHIEVED WITHIN TOLERANCE.

 AVERAGE HEAT FLUX                   0.00       TIME AVG. HEAT FLUX   1.000E-02
 ALL HEAT FLUX RESIDUALS ARE ZERO
 ALL TEMP.    INCREMENTS ARE ZERO
 ALL CORRECTION TO TEMP.    ARE ZERO
          THERE IS ZERO HEAT FLUX EVERYWHERE
 
	UNSYMMETRIC NEW DIRECT SPARSE SOLVER RUNNING ON
 	1 HOST x 1 MPI RANK PER HOST x 8 THREADS PER RANK
        NUMBER OF EQUATIONS:  3993
        NUMBER OF RHS:        1
        NUMBER OF FLOPS:      6.013e+08
        SOLVER ELAPSED TIME:  11ms

               CONVERGENCE CHECKS FOR EQUILIBRIUM ITERATION     3


 AVERAGE FORCE                       342.       TIME AVG. FORCE        342.    
 LARGEST SCALED RESIDUAL FORCE       3.61       AT NODE        909   DOF  2
   INSTANCE: CUBE-1                                                                          
  CORRESPONDING RESIDUAL FORCE       3.61    
 LARGEST INCREMENT OF DISP.         1.000E-04   AT NODE          1   DOF  2
   INSTANCE: CUBE-1                                                                          
 LARGEST CORRECTION TO DISP.        4.552E-07   AT NODE       1266   DOF  1
   INSTANCE: CUBE-1                                                                          
          FORCE     EQUILIBRIUM NOT ACHIEVED WITHIN TOLERANCE.

 AVERAGE HEAT FLUX                   0.00       TIME AVG. HEAT FLUX   1.000E-02
 ALL HEAT FLUX RESIDUALS ARE ZERO
 ALL TEMP.    INCREMENTS ARE ZERO
 ALL CORRECTION TO TEMP.    ARE ZERO
          THERE IS ZERO HEAT FLUX EVERYWHERE
 
	UNSYMMETRIC NEW DIRECT SPARSE SOLVER RUNNING ON
 	1 HOST x 1 MPI RANK PER HOST x 8 THREADS PER RANK
        NUMBER OF EQUATIONS:  3993
        NUMBER OF RHS:        1
        NUMBER OF FLOPS:      6.013e+08
        SOLVER ELAPSED TIME:  11ms

               CONVERGENCE CHECKS FOR EQUILIBRIUM ITERATION     4


 AVERAGE FORCE                       342.       TIME AVG. FORCE        342.    
 LARGEST SCALED RESIDUAL FORCE     -3.211E-02   AT NODE        930   DOF  2
   INSTANCE: CUBE-1                                                                          
  CORRESPONDING RESIDUAL FORCE     -3.211E-02
 LARGEST INCREMENT OF DISP.         1.000E-04   AT NODE          1   DOF  2
   INSTANCE: CUBE-1                                                                          
 LARGEST CORRECTION TO DISP.        1.712E-08   AT NODE        665   DOF  2
   INSTANCE: CUBE-1                                                                          
          THE FORCE     EQUILIBRIUM EQUATIONS HAVE CONVERGED

 AVERAGE HEAT FLUX                   0.00       TIME AVG. HEAT FLUX   1.000E-02
 ALL HEAT FLUX RESIDUALS ARE ZERO
 ALL TEMP.    INCREMENTS ARE ZERO
 ALL CORRECTION TO TEMP.    ARE ZERO
          THERE IS ZERO HEAT FLUX EVERYWHERE

 MAXIMUM NON-PRESCRIBED INCREMENT IN TEMPERATURE IS    0.00    

 ITERATION SUMMARY FOR THE INCREMENT:   4 TOTAL ITERATIONS, OF WHICH
   0 ARE SEVERE DISCONTINUITY ITERATIONS AND  4 ARE EQUILIBRIUM ITERATIONS.

 TIME INCREMENT COMPLETED   10.0    ,  FRACTION OF STEP COMPLETED  1.000E-02
 STEP TIME COMPLETED        10.0    ,  TOTAL TIME COMPLETED         10.0    


  INCREMENT     2 STARTS. ATTEMPT NUMBER  1, TIME INCREMENT   10.0    
 
	UNSYMMETRIC NEW DIRECT SPARSE SOLVER RUNNING ON
 	1 HOST x 1 MPI RANK PER HOST x 8 THREADS PER RANK
        NUMBER OF EQUATIONS:  3993
        NUMBER OF RHS:        1
        NUMBER OF FLOPS:      6.013e+08
        SOLVER ELAPSED TIME:  9ms

               CONVERGENCE CHECKS FOR EQUILIBRIUM ITERATION     1


 AVERAGE FORCE                       356.       TIME AVG. FORCE        349.    
 LARGEST SCALED RESIDUAL FORCE      1.487E+03   AT NODE        669   DOF  2
   INSTANCE: CUBE-1                                                                          
  CORRESPONDING RESIDUAL FORCE      1.487E+03
 LARGEST INCREMENT OF DISP.         1.000E-04   AT NODE          1   DOF  2
   INSTANCE: CUBE-1                                                                          
 LARGEST CORRECTION TO DISP.       -3.327E-05   AT NODE        667   DOF  2
   INSTANCE: CUBE-1                                                                          
          FORCE     EQUILIBRIUM NOT ACHIEVED WITHIN TOLERANCE.

 AVERAGE HEAT FLUX                   0.00       TIME AVG. HEAT FLUX   1.000E-02
 ALL HEAT FLUX RESIDUALS ARE ZERO
 ALL TEMP.    INCREMENTS ARE ZERO
 ALL CORRECTION TO TEMP.    ARE ZERO
          THERE IS ZERO HEAT FLUX EVERYWHERE
 
	UNSYMMETRIC NEW DIRECT SPARSE SOLVER RUNNING ON
 	1 HOST x 1 MPI RANK PER HOST x 8 THREADS PER RANK
        NUMBER OF EQUATIONS:  3993
        NUMBER OF RHS:        1
        NUMBER OF FLOPS:      6.013e+08
        SOLVER ELAPSED TIME:  10ms

               CONVERGENCE CHECKS FOR EQUILIBRIUM ITERATION     2


 AVERAGE FORCE                       365.       TIME AVG. FORCE        353.    
 LARGEST SCALED RESIDUAL FORCE       160.       AT NODE        668   DOF  2
   INSTANCE: CUBE-1                                                                          
  CORRESPONDING RESIDUAL FORCE       160.    
 LARGEST INCREMENT OF DISP.         1.000E-04   AT NODE          1   DOF  2
   INSTANCE: CUBE-1                                                                          
 LARGEST CORRECTION TO DISP.        8.451E-06   AT NODE        668   DOF  2
   INSTANCE: CUBE-1                                                                          
          FORCE     EQUILIBRIUM NOT ACHIEVED WITHIN TOLERANCE.

 AVERAGE HEAT FLUX                   0.00       TIME AVG. HEAT FLUX   1.000E-02
 ALL HEAT FLUX RESIDUALS ARE ZERO
 ALL TEMP.    INCREMENTS ARE ZERO
 ALL CORRECTION TO TEMP.    ARE ZERO
          THERE IS ZERO HEAT FLUX EVERYWHERE
 
	UNSYMMETRIC NEW DIRECT SPARSE SOLVER RUNNING ON
 	1 HOST x 1 MPI RANK PER HOST x 8 THREADS PER RANK
        NUMBER OF EQUATIONS:  3993
        NUMBER OF RHS:        1
        NUMBER OF FLOPS:      6.013e+08
        SOLVER ELAPSED TIME:  9ms

               CONVERGENCE CHECKS FOR EQUILIBRIUM ITERATION     3


 AVERAGE FORCE                       365.       TIME AVG. FORCE        353.    
 LARGEST SCALED RESIDUAL FORCE       14.3       AT NODE        668   DOF  2
   INSTANCE: CUBE-1                                                                          
  CORRESPONDING RESIDUAL FORCE       14.3    
 LARGEST INCREMENT OF DISP.         1.000E-04   AT NODE          1   DOF  2
   INSTANCE: CUBE-1                                                                          
 LARGEST CORRECTION TO DISP.        1.181E-06   AT NODE        665   DOF  2
   INSTANCE: CUBE-1                                                                          
          FORCE     EQUILIBRIUM NOT ACHIEVED WITHIN TOLERANCE.

 AVERAGE HEAT FLUX                   0.00       TIME AVG. HEAT FLUX   1.000E-02
 ALL HEAT FLUX RESIDUALS ARE ZERO
 ALL TEMP.    INCREMENTS ARE ZERO
 ALL CORRECTION TO TEMP.    ARE ZERO
          THERE IS ZERO HEAT FLUX EVERYWHERE
 
	UNSYMMETRIC NEW DIRECT SPARSE SOLVER RUNNING ON
 	1 HOST x 1 MPI RANK PER HOST x 8 THREADS PER RANK
        NUMBER OF EQUATIONS:  3993
        NUMBER OF RHS:        1
        NUMBER OF FLOPS:      6.013e+08
        SOLVER ELAPSED TIME:  11ms

               CONVERGENCE CHECKS FOR EQUILIBRIUM ITERATION     4


 AVERAGE FORCE                       365.       TIME AVG. FORCE        353.    
 LARGEST SCALED RESIDUAL FORCE     -0.186       AT NODE        537   DOF  2
   INSTANCE: CUBE-1                                                                          
  CORRESPONDING RESIDUAL FORCE     -0.186    
 LARGEST INCREMENT OF DISP.         1.000E-04   AT NODE          1   DOF  2
   INSTANCE: CUBE-1                                                                          
 LARGEST CORRECTION TO DISP.        8.523E-08   AT NODE        667   DOF  2
   INSTANCE: CUBE-1                                                                          
          THE FORCE     EQUILIBRIUM EQUATIONS HAVE CONVERGED

 AVERAGE HEAT FLUX                   0.00       TIME AVG. HEAT FLUX   1.000E-02
 ALL HEAT FLUX RESIDUALS ARE ZERO
 ALL TEMP.    INCREMENTS ARE ZERO
 ALL CORRECTION TO TEMP.    ARE ZERO
          THERE IS ZERO HEAT FLUX EVERYWHERE

 MAXIMUM NON-PRESCRIBED INCREMENT IN TEMPERATURE IS    0.00    

 ITERATION SUMMARY FOR THE INCREMENT:   4 TOTAL ITERATIONS, OF WHICH
   0 ARE SEVERE DISCONTINUITY ITERATIONS AND  4 ARE EQUILIBRIUM ITERATIONS.

 TIME INCREMENT COMPLETED   10.0    ,  FRACTION OF STEP COMPLETED  2.000E-02
 STEP TIME COMPLETED        20.0    ,  TOTAL TIME COMPLETED         20.0    


  INCREMENT     3 STARTS. ATTEMPT NUMBER  1, TIME INCREMENT   10.0    
 
	UNSYMMETRIC NEW DIRECT SPARSE SOLVER RUNNING ON
 	1 HOST x 1 MPI RANK PER HOST x 8 THREADS PER RANK
        NUMBER OF EQUATIONS:  3993
        NUMBER OF RHS:        1
        NUMBER OF FLOPS:      6.013e+08
        SOLVER ELAPSED TIME:  9ms

               CONVERGENCE CHECKS FOR EQUILIBRIUM ITERATION     1


 AVERAGE FORCE                       377.       TIME AVG. FORCE        361.    
 LARGEST SCALED RESIDUAL FORCE       3.81       AT NODE        306   DOF  2
   INSTANCE: CUBE-1                                                                          
  CORRESPONDING RESIDUAL FORCE       3.81    
 LARGEST INCREMENT OF DISP.         1.000E-04   AT NODE          1   DOF  2
   INSTANCE: CUBE-1                                                                          
 LARGEST CORRECTION TO DISP.       -9.748E-07   AT NODE        615   DOF  3
   INSTANCE: CUBE-1                                                                          
          FORCE     EQUILIBRIUM NOT ACHIEVED WITHIN TOLERANCE.

 AVERAGE HEAT FLUX                   0.00       TIME AVG. HEAT FLUX   1.000E-02
 ALL HEAT FLUX RESIDUALS ARE ZERO
 ALL TEMP.    INCREMENTS ARE ZERO
 ALL CORRECTION TO TEMP.    ARE ZERO
          THERE IS ZERO HEAT FLUX EVERYWHERE
 
	UNSYMMETRIC NEW DIRECT SPARSE SOLVER RUNNING ON
 	1 HOST x 1 MPI RANK PER HOST x 8 THREADS PER RANK
        NUMBER OF EQUATIONS:  3993
        NUMBER OF RHS:        1
        NUMBER OF FLOPS:      6.013e+08
        SOLVER ELAPSED TIME:  9ms

               CONVERGENCE CHECKS FOR EQUILIBRIUM ITERATION     2


 AVERAGE FORCE                       377.       TIME AVG. FORCE        361.    
 LARGEST SCALED RESIDUAL FORCE      8.738E-02   AT NODE        658   DOF  2
   INSTANCE: CUBE-1                                                                          
  CORRESPONDING RESIDUAL FORCE      8.738E-02
 LARGEST INCREMENT OF DISP.         1.000E-04   AT NODE          1   DOF  2
   INSTANCE: CUBE-1                                                                          
 LARGEST CORRECTION TO DISP.        8.061E-08   AT NODE        665   DOF  2
   INSTANCE: CUBE-1                                                                          
          THE FORCE     EQUILIBRIUM EQUATIONS HAVE CONVERGED

 AVERAGE HEAT FLUX                   0.00       TIME AVG. HEAT FLUX   1.000E-02
 ALL HEAT FLUX RESIDUALS ARE ZERO
 ALL TEMP.    INCREMENTS ARE ZERO
 ALL CORRECTION TO TEMP.    ARE ZERO
          THERE IS ZERO HEAT FLUX EVERYWHERE

 MAXIMUM NON-PRESCRIBED INCREMENT IN TEMPERATURE IS    0.00    

 ITERATION SUMMARY FOR THE INCREMENT:   2 TOTAL ITERATIONS, OF WHICH
   0 ARE SEVERE DISCONTINUITY ITERATIONS AND  2 ARE EQUILIBRIUM ITERATIONS.

 TIME INCREMENT COMPLETED   10.0    ,  FRACTION OF STEP COMPLETED  3.000E-02
 STEP TIME COMPLETED        30.0    ,  TOTAL TIME COMPLETED         30.0    


  INCREMENT     4 STARTS. ATTEMPT NUMBER  1, TIME INCREMENT   10.0    
 
	UNSYMMETRIC NEW DIRECT SPARSE SOLVER RUNNING ON
 	1 HOST x 1 MPI RANK PER HOST x 8 THREADS PER RANK
        NUMBER OF EQUATIONS:  3993
        NUMBER OF RHS:        1
        NUMBER OF FLOPS:      6.013e+08
        SOLVER ELAPSED TIME:  8ms

               CONVERGENCE CHECKS FOR EQUILIBRIUM ITERATION     1


 AVERAGE FORCE                       386.       TIME AVG. FORCE        367.    
 LARGEST SCALED RESIDUAL FORCE      -1.18       AT NODE        406   DOF  2
   INSTANCE: CUBE-1                                                                          
  CORRESPONDING RESIDUAL FORCE      -1.18    
 LARGEST INCREMENT OF DISP.         1.000E-04   AT NODE          1   DOF  2
   INSTANCE: CUBE-1                                                                          
 LARGEST CORRECTION TO DISP.       -6.133E-07   AT NODE          8   DOF  2
   INSTANCE: CUBE-1                                                                          
          THE FORCE     EQUILIBRIUM EQUATIONS HAVE CONVERGED

 AVERAGE HEAT FLUX                   0.00       TIME AVG. HEAT FLUX   1.000E-02
 ALL HEAT FLUX RESIDUALS ARE ZERO
 ALL TEMP.    INCREMENTS ARE ZERO
 ALL CORRECTION TO TEMP.    ARE ZERO
          THERE IS ZERO HEAT FLUX EVERYWHERE

 MAXIMUM NON-PRESCRIBED INCREMENT IN TEMPERATURE IS    0.00    

 ITERATION SUMMARY FOR THE INCREMENT:   1 TOTAL ITERATIONS, OF WHICH
   0 ARE SEVERE DISCONTINUITY ITERATIONS AND  1 ARE EQUILIBRIUM ITERATIONS.

 TIME INCREMENT COMPLETED   10.0    ,  FRACTION OF STEP COMPLETED  4.000E-02
 STEP TIME COMPLETED        40.0    ,  TOTAL TIME COMPLETED         40.0    


  INCREMENT     5 STARTS. ATTEMPT NUMBER  1, TIME INCREMENT   10.0    
 
	UNSYMMETRIC NEW DIRECT SPARSE SOLVER RUNNING ON
 	1 HOST x 1 MPI RANK PER HOST x 8 THREADS PER RANK
        NUMBER OF EQUATIONS:  3993
        NUMBER OF RHS:        1
        NUMBER OF FLOPS:      6.013e+08
        SOLVER ELAPSED TIME:  9ms

               CONVERGENCE CHECKS FOR EQUILIBRIUM ITERATION     1


 AVERAGE FORCE                       391.       TIME AVG. FORCE        372.    
 LARGEST SCALED RESIDUAL FORCE      0.509       AT NODE         10   DOF  2
   INSTANCE: CUBE-1                                                                          
  CORRESPONDING RESIDUAL FORCE      0.509    
 LARGEST INCREMENT OF DISP.         1.000E-04   AT NODE          1   DOF  2
   INSTANCE: CUBE-1                                                                          
 LARGEST CORRECTION TO DISP.       -1.634E-06   AT NODE        664   DOF  2
   INSTANCE: CUBE-1                                                                          
 ESTIMATE OF DISP.    CORRECTION    1.385E-08
 FORCE     EQUILIB. ACCEPTED BASED ON SMALL RESIDUAL AND ESTIMATED CORRECTION

 AVERAGE HEAT FLUX                   0.00       TIME AVG. HEAT FLUX   1.000E-02
 ALL HEAT FLUX RESIDUALS ARE ZERO
 ALL TEMP.    INCREMENTS ARE ZERO
 ALL CORRECTION TO TEMP.    ARE ZERO
          THERE IS ZERO HEAT FLUX EVERYWHERE

 MAXIMUM NON-PRESCRIBED INCREMENT IN TEMPERATURE IS    0.00    

 ITERATION SUMMARY FOR THE INCREMENT:   1 TOTAL ITERATIONS, OF WHICH
   0 ARE SEVERE DISCONTINUITY ITERATIONS AND  1 ARE EQUILIBRIUM ITERATIONS.

 TIME INCREMENT COMPLETED   10.0    ,  FRACTION OF STEP COMPLETED  5.000E-02
 STEP TIME COMPLETED        50.0    ,  TOTAL TIME COMPLETED         50.0    


  INCREMENT     6 STARTS. ATTEMPT NUMBER  1, TIME INCREMENT   10.0    
 
	UNSYMMETRIC NEW DIRECT SPARSE SOLVER RUNNING ON
 	1 HOST x 1 MPI RANK PER HOST x 8 THREADS PER RANK
        NUMBER OF EQUATIONS:  3993
        NUMBER OF RHS:        1
        NUMBER OF FLOPS:      6.013e+08
        SOLVER ELAPSED TIME:  9ms

               CONVERGENCE CHECKS FOR EQUILIBRIUM ITERATION     1


 AVERAGE FORCE                       395.       TIME AVG. FORCE        376.    
 LARGEST SCALED RESIDUAL FORCE     -0.815       AT NODE        802   DOF  2
   INSTANCE: CUBE-1                                                                          
  CORRESPONDING RESIDUAL FORCE     -0.815    
 LARGEST INCREMENT OF DISP.         1.000E-04   AT NODE          1   DOF  2
   INSTANCE: CUBE-1                                                                          
 LARGEST CORRECTION TO DISP.       -1.803E-06   AT NODE        664   DOF  2
   INSTANCE: CUBE-1                                                                          
 ESTIMATE OF DISP.    CORRECTION   -2.380E-08
 FORCE     EQUILIB. ACCEPTED BASED ON SMALL RESIDUAL AND ESTIMATED CORRECTION

 AVERAGE HEAT FLUX                   0.00       TIME AVG. HEAT FLUX   1.000E-02
 ALL HEAT FLUX RESIDUALS ARE ZERO
 ALL TEMP.    INCREMENTS ARE ZERO
 ALL CORRECTION TO TEMP.    ARE ZERO
          THERE IS ZERO HEAT FLUX EVERYWHERE

 MAXIMUM NON-PRESCRIBED INCREMENT IN TEMPERATURE IS    0.00    

 ITERATION SUMMARY FOR THE INCREMENT:   1 TOTAL ITERATIONS, OF WHICH
   0 ARE SEVERE DISCONTINUITY ITERATIONS AND  1 ARE EQUILIBRIUM ITERATIONS.

 TIME INCREMENT COMPLETED   10.0    ,  FRACTION OF STEP COMPLETED  6.000E-02
 STEP TIME COMPLETED        60.0    ,  TOTAL TIME COMPLETED         60.0    


  INCREMENT     7 STARTS. ATTEMPT NUMBER  1, TIME INCREMENT   10.0    
 
	UNSYMMETRIC NEW DIRECT SPARSE SOLVER RUNNING ON
 	1 HOST x 1 MPI RANK PER HOST x 8 THREADS PER RANK
        NUMBER OF EQUATIONS:  3993
        NUMBER OF RHS:        1
        NUMBER OF FLOPS:      6.013e+08
        SOLVER ELAPSED TIME:  8ms

               CONVERGENCE CHECKS FOR EQUILIBRIUM ITERATION     1


 AVERAGE FORCE                       397.       TIME AVG. FORCE        379.    
 LARGEST SCALED RESIDUAL FORCE      0.467       AT NODE        911   DOF  1
   INSTANCE: CUBE-1                                                                          
  CORRESPONDING RESIDUAL FORCE      0.467    
 LARGEST INCREMENT OF DISP.         1.000E-04   AT NODE          1   DOF  2
   INSTANCE: CUBE-1                                                                          
 LARGEST CORRECTION TO DISP.       -1.920E-06   AT NODE        664   DOF  2
   INSTANCE: CUBE-1                                                                          
 ESTIMATE OF DISP.    CORRECTION    1.369E-08
 FORCE     EQUILIB. ACCEPTED BASED ON SMALL RESIDUAL AND ESTIMATED CORRECTION

 AVERAGE HEAT FLUX                   0.00       TIME AVG. HEAT FLUX   1.000E-02
 ALL HEAT FLUX RESIDUALS ARE ZERO
 ALL TEMP.    INCREMENTS ARE ZERO
 ALL CORRECTION TO TEMP.    ARE ZERO
          THERE IS ZERO HEAT FLUX EVERYWHERE

 MAXIMUM NON-PRESCRIBED INCREMENT IN TEMPERATURE IS    0.00    

 ITERATION SUMMARY FOR THE INCREMENT:   1 TOTAL ITERATIONS, OF WHICH
   0 ARE SEVERE DISCONTINUITY ITERATIONS AND  1 ARE EQUILIBRIUM ITERATIONS.

 TIME INCREMENT COMPLETED   10.0    ,  FRACTION OF STEP COMPLETED  7.000E-02
 STEP TIME COMPLETED        70.0    ,  TOTAL TIME COMPLETED         70.0    


  INCREMENT     8 STARTS. ATTEMPT NUMBER  1, TIME INCREMENT   10.0    
 
	UNSYMMETRIC NEW DIRECT SPARSE SOLVER RUNNING ON
 	1 HOST x 1 MPI RANK PER HOST x 8 THREADS PER RANK
        NUMBER OF EQUATIONS:  3993
        NUMBER OF RHS:        1
        NUMBER OF FLOPS:      6.013e+08
        SOLVER ELAPSED TIME:  9ms

               CONVERGENCE CHECKS FOR EQUILIBRIUM ITERATION     1


 AVERAGE FORCE                       399.       TIME AVG. FORCE        381.    
 LARGEST SCALED RESIDUAL FORCE     -0.405       AT NODE        426   DOF  1
   INSTANCE: CUBE-1                                                                          
  CORRESPONDING RESIDUAL FORCE     -0.405    
 LARGEST INCREMENT OF DISP.         1.000E-04   AT NODE          1   DOF  2
   INSTANCE: CUBE-1                                                                          
 LARGEST CORRECTION TO DISP.       -1.823E-06   AT NODE        664   DOF  2
   INSTANCE: CUBE-1                                                                          
 ESTIMATE OF DISP.    CORRECTION   -1.058E-08
 FORCE     EQUILIB. ACCEPTED BASED ON SMALL RESIDUAL AND ESTIMATED CORRECTION

 AVERAGE HEAT FLUX                   0.00       TIME AVG. HEAT FLUX   1.000E-02
 ALL HEAT FLUX RESIDUALS ARE ZERO
 ALL TEMP.    INCREMENTS ARE ZERO
 ALL CORRECTION TO TEMP.    ARE ZERO
          THERE IS ZERO HEAT FLUX EVERYWHERE

 MAXIMUM NON-PRESCRIBED INCREMENT IN TEMPERATURE IS    0.00    

 ITERATION SUMMARY FOR THE INCREMENT:   1 TOTAL ITERATIONS, OF WHICH
   0 ARE SEVERE DISCONTINUITY ITERATIONS AND  1 ARE EQUILIBRIUM ITERATIONS.

 TIME INCREMENT COMPLETED   10.0    ,  FRACTION OF STEP COMPLETED  8.000E-02
 STEP TIME COMPLETED        80.0    ,  TOTAL TIME COMPLETED         80.0    


  INCREMENT     9 STARTS. ATTEMPT NUMBER  1, TIME INCREMENT   10.0    
 
	UNSYMMETRIC NEW DIRECT SPARSE SOLVER RUNNING ON
 	1 HOST x 1 MPI RANK PER HOST x 8 THREADS PER RANK
        NUMBER OF EQUATIONS:  3993
        NUMBER OF RHS:        1
        NUMBER OF FLOPS:      6.013e+08
        SOLVER ELAPSED TIME:  10ms

               CONVERGENCE CHECKS FOR EQUILIBRIUM ITERATION     1


 AVERAGE FORCE                       400.       TIME AVG. FORCE        384.    
 LARGEST SCALED RESIDUAL FORCE     -0.403       AT NODE       1198   DOF  2
   INSTANCE: CUBE-1                                                                          
  CORRESPONDING RESIDUAL FORCE     -0.403    
 LARGEST INCREMENT OF DISP.         1.000E-04   AT NODE          1   DOF  2
   INSTANCE: CUBE-1                                                                          
 LARGEST CORRECTION TO DISP.       -1.777E-06   AT NODE        664   DOF  2
   INSTANCE: CUBE-1                                                                          
 ESTIMATE OF DISP.    CORRECTION   -9.821E-09
 FORCE     EQUILIB. ACCEPTED BASED ON SMALL RESIDUAL AND ESTIMATED CORRECTION

 AVERAGE HEAT FLUX                   0.00       TIME AVG. HEAT FLUX   1.000E-02
 ALL HEAT FLUX RESIDUALS ARE ZERO
 ALL TEMP.    INCREMENTS ARE ZERO
 ALL CORRECTION TO TEMP.    ARE ZERO
          THERE IS ZERO HEAT FLUX EVERYWHERE

 MAXIMUM NON-PRESCRIBED INCREMENT IN TEMPERATURE IS    0.00    

 ITERATION SUMMARY FOR THE INCREMENT:   1 TOTAL ITERATIONS, OF WHICH
   0 ARE SEVERE DISCONTINUITY ITERATIONS AND  1 ARE EQUILIBRIUM ITERATIONS.

 TIME INCREMENT COMPLETED   10.0    ,  FRACTION OF STEP COMPLETED  9.000E-02
 STEP TIME COMPLETED        90.0    ,  TOTAL TIME COMPLETED         90.0    


  INCREMENT    10 STARTS. ATTEMPT NUMBER  1, TIME INCREMENT   10.0    
 
	UNSYMMETRIC NEW DIRECT SPARSE SOLVER RUNNING ON
 	1 HOST x 1 MPI RANK PER HOST x 8 THREADS PER RANK
        NUMBER OF EQUATIONS:  3993
        NUMBER OF RHS:        1
        NUMBER OF FLOPS:      6.013e+08
        SOLVER ELAPSED TIME:  9ms

               CONVERGENCE CHECKS FOR EQUILIBRIUM ITERATION     1


 AVERAGE FORCE                       401.       TIME AVG. FORCE        385.    
 LARGEST SCALED RESIDUAL FORCE       1.61       AT NODE        790   DOF  2
   INSTANCE: CUBE-1                                                                          
  CORRESPONDING RESIDUAL FORCE       1.61    
 LARGEST INCREMENT OF DISP.         1.000E-04   AT NODE          1   DOF  2
   INSTANCE: CUBE-1                                                                          
 LARGEST CORRECTION TO DISP.       -1.883E-06   AT NODE        664   DOF  2
   INSTANCE: CUBE-1                                                                          
 ESTIMATE OF DISP.    CORRECTION   -4.019E-08
 FORCE     EQUILIB. ACCEPTED BASED ON SMALL RESIDUAL AND ESTIMATED CORRECTION

 AVERAGE HEAT FLUX                   0.00       TIME AVG. HEAT FLUX   1.000E-02
 ALL HEAT FLUX RESIDUALS ARE ZERO
 ALL TEMP.    INCREMENTS ARE ZERO
 ALL CORRECTION TO TEMP.    ARE ZERO
          THERE IS ZERO HEAT FLUX EVERYWHERE

 MAXIMUM NON-PRESCRIBED INCREMENT IN TEMPERATURE IS    0.00    

 ITERATION SUMMARY FOR THE INCREMENT:   1 TOTAL ITERATIONS, OF WHICH
   0 ARE SEVERE DISCONTINUITY ITERATIONS AND  1 ARE EQUILIBRIUM ITERATIONS.

 TIME INCREMENT COMPLETED   10.0    ,  FRACTION OF STEP COMPLETED  0.100    
 STEP TIME COMPLETED        100.    ,  TOTAL TIME COMPLETED         100.    


  INCREMENT    11 STARTS. ATTEMPT NUMBER  1, TIME INCREMENT   10.0    
 
	UNSYMMETRIC NEW DIRECT SPARSE SOLVER RUNNING ON
 	1 HOST x 1 MPI RANK PER HOST x 8 THREADS PER RANK
        NUMBER OF EQUATIONS:  3993
        NUMBER OF RHS:        1
        NUMBER OF FLOPS:      6.013e+08
        SOLVER ELAPSED TIME:  9ms

               CONVERGENCE CHECKS FOR EQUILIBRIUM ITERATION     1


 AVERAGE FORCE                       402.       TIME AVG. FORCE        387.    
 LARGEST SCALED RESIDUAL FORCE      0.381       AT NODE        542   DOF  2
   INSTANCE: CUBE-1                                                                          
  CORRESPONDING RESIDUAL FORCE      0.381    
 LARGEST INCREMENT OF DISP.         1.000E-04   AT NODE          1   DOF  2
   INSTANCE: CUBE-1                                                                          
 LARGEST CORRECTION TO DISP.       -1.716E-06   AT NODE        664   DOF  2
   INSTANCE: CUBE-1                                                                          
 ESTIMATE OF DISP.    CORRECTION   -8.268E-09
 FORCE     EQUILIB. ACCEPTED BASED ON SMALL RESIDUAL AND ESTIMATED CORRECTION

 AVERAGE HEAT FLUX                   0.00       TIME AVG. HEAT FLUX   1.000E-02
 ALL HEAT FLUX RESIDUALS ARE ZERO
 ALL TEMP.    INCREMENTS ARE ZERO
 ALL CORRECTION TO TEMP.    ARE ZERO
          THERE IS ZERO HEAT FLUX EVERYWHERE

 MAXIMUM NON-PRESCRIBED INCREMENT IN TEMPERATURE IS    0.00    

 ITERATION SUMMARY FOR THE INCREMENT:   1 TOTAL ITERATIONS, OF WHICH
   0 ARE SEVERE DISCONTINUITY ITERATIONS AND  1 ARE EQUILIBRIUM ITERATIONS.

 TIME INCREMENT COMPLETED   10.0    ,  FRACTION OF STEP COMPLETED  0.110    
 STEP TIME COMPLETED        110.    ,  TOTAL TIME COMPLETED         110.    


  INCREMENT    12 STARTS. ATTEMPT NUMBER  1, TIME INCREMENT   10.0    
 
	UNSYMMETRIC NEW DIRECT SPARSE SOLVER RUNNING ON
 	1 HOST x 1 MPI RANK PER HOST x 8 THREADS PER RANK
        NUMBER OF EQUATIONS:  3993
        NUMBER OF RHS:        1
        NUMBER OF FLOPS:      6.013e+08
        SOLVER ELAPSED TIME:  8ms

               CONVERGENCE CHECKS FOR EQUILIBRIUM ITERATION     1


 AVERAGE FORCE                       403.       TIME AVG. FORCE        388.    
 LARGEST SCALED RESIDUAL FORCE       1.38       AT NODE        790   DOF  2
   INSTANCE: CUBE-1                                                                          
  CORRESPONDING RESIDUAL FORCE       1.38    
 LARGEST INCREMENT OF DISP.         1.000E-04   AT NODE          1   DOF  2
   INSTANCE: CUBE-1                                                                          
 LARGEST CORRECTION TO DISP.       -1.874E-06   AT NODE        664   DOF  2
   INSTANCE: CUBE-1                                                                          
 ESTIMATE OF DISP.    CORRECTION   -3.176E-08
 FORCE     EQUILIB. ACCEPTED BASED ON SMALL RESIDUAL AND ESTIMATED CORRECTION

 AVERAGE HEAT FLUX                   0.00       TIME AVG. HEAT FLUX   1.000E-02
 ALL HEAT FLUX RESIDUALS ARE ZERO
 ALL TEMP.    INCREMENTS ARE ZERO
 ALL CORRECTION TO TEMP.    ARE ZERO
          THERE IS ZERO HEAT FLUX EVERYWHERE

 MAXIMUM NON-PRESCRIBED INCREMENT IN TEMPERATURE IS    0.00    

 ITERATION SUMMARY FOR THE INCREMENT:   1 TOTAL ITERATIONS, OF WHICH
   0 ARE SEVERE DISCONTINUITY ITERATIONS AND  1 ARE EQUILIBRIUM ITERATIONS.

 TIME INCREMENT COMPLETED   10.0    ,  FRACTION OF STEP COMPLETED  0.120    
 STEP TIME COMPLETED        120.    ,  TOTAL TIME COMPLETED         120.    


  INCREMENT    13 STARTS. ATTEMPT NUMBER  1, TIME INCREMENT   10.0    
 
	UNSYMMETRIC NEW DIRECT SPARSE SOLVER RUNNING ON
 	1 HOST x 1 MPI RANK PER HOST x 8 THREADS PER RANK
        NUMBER OF EQUATIONS:  3993
        NUMBER OF RHS:        1
        NUMBER OF FLOPS:      6.013e+08
        SOLVER ELAPSED TIME:  8ms

               CONVERGENCE CHECKS FOR EQUILIBRIUM ITERATION     1


 AVERAGE FORCE                       404.       TIME AVG. FORCE        389.    
 LARGEST SCALED RESIDUAL FORCE      -2.25       AT NODE        692   DOF  2
   INSTANCE: CUBE-1                                                                          
  CORRESPONDING RESIDUAL FORCE      -2.25    
 LARGEST INCREMENT OF DISP.         1.000E-04   AT NODE          1   DOF  2
   INSTANCE: CUBE-1                                                                          
 LARGEST CORRECTION TO DISP.       -1.886E-06   AT NODE        664   DOF  2
   INSTANCE: CUBE-1                                                                          
          FORCE     EQUILIBRIUM NOT ACHIEVED WITHIN TOLERANCE.

 AVERAGE HEAT FLUX                   0.00       TIME AVG. HEAT FLUX   1.000E-02
 ALL HEAT FLUX RESIDUALS ARE ZERO
 ALL TEMP.    INCREMENTS ARE ZERO
 ALL CORRECTION TO TEMP.    ARE ZERO
          THERE IS ZERO HEAT FLUX EVERYWHERE
 
	UNSYMMETRIC NEW DIRECT SPARSE SOLVER RUNNING ON
 	1 HOST x 1 MPI RANK PER HOST x 8 THREADS PER RANK
        NUMBER OF EQUATIONS:  3993
        NUMBER OF RHS:        1
        NUMBER OF FLOPS:      6.013e+08
        SOLVER ELAPSED TIME:  7ms

               CONVERGENCE CHECKS FOR EQUILIBRIUM ITERATION     2


 AVERAGE FORCE                       404.       TIME AVG. FORCE        389.    
 LARGEST SCALED RESIDUAL FORCE     -7.653E-02   AT NODE        417   DOF  2
   INSTANCE: CUBE-1                                                                          
  CORRESPONDING RESIDUAL FORCE     -7.653E-02
 LARGEST INCREMENT OF DISP.         1.000E-04   AT NODE          1   DOF  2
   INSTANCE: CUBE-1                                                                          
 LARGEST CORRECTION TO DISP.        1.068E-07   AT NODE        664   DOF  2
   INSTANCE: CUBE-1                                                                          
          THE FORCE     EQUILIBRIUM EQUATIONS HAVE CONVERGED

 AVERAGE HEAT FLUX                   0.00       TIME AVG. HEAT FLUX   1.000E-02
 ALL HEAT FLUX RESIDUALS ARE ZERO
 ALL TEMP.    INCREMENTS ARE ZERO
 ALL CORRECTION TO TEMP.    ARE ZERO
          THERE IS ZERO HEAT FLUX EVERYWHERE

 MAXIMUM NON-PRESCRIBED INCREMENT IN TEMPERATURE IS    0.00    

 ITERATION SUMMARY FOR THE INCREMENT:   2 TOTAL ITERATIONS, OF WHICH
   0 ARE SEVERE DISCONTINUITY ITERATIONS AND  2 ARE EQUILIBRIUM ITERATIONS.

 TIME INCREMENT COMPLETED   10.0    ,  FRACTION OF STEP COMPLETED  0.130    
 STEP TIME COMPLETED        130.    ,  TOTAL TIME COMPLETED         130.    


  INCREMENT    14 STARTS. ATTEMPT NUMBER  1, TIME INCREMENT   10.0    
 
	UNSYMMETRIC NEW DIRECT SPARSE SOLVER RUNNING ON
 	1 HOST x 1 MPI RANK PER HOST x 8 THREADS PER RANK
        NUMBER OF EQUATIONS:  3993
        NUMBER OF RHS:        1
        NUMBER OF FLOPS:      6.013e+08
        SOLVER ELAPSED TIME:  8ms

               CONVERGENCE CHECKS FOR EQUILIBRIUM ITERATION     1


 AVERAGE FORCE                       404.       TIME AVG. FORCE        390.    
 LARGEST SCALED RESIDUAL FORCE      -2.19       AT NODE        813   DOF  2
   INSTANCE: CUBE-1                                                                          
  CORRESPONDING RESIDUAL FORCE      -2.19    
 LARGEST INCREMENT OF DISP.         1.000E-04   AT NODE          1   DOF  2
   INSTANCE: CUBE-1                                                                          
 LARGEST CORRECTION TO DISP.       -1.952E-06   AT NODE        664   DOF  2
   INSTANCE: CUBE-1                                                                          
          FORCE     EQUILIBRIUM NOT ACHIEVED WITHIN TOLERANCE.

 AVERAGE HEAT FLUX                   0.00       TIME AVG. HEAT FLUX   1.000E-02
 ALL HEAT FLUX RESIDUALS ARE ZERO
 ALL TEMP.    INCREMENTS ARE ZERO
 ALL CORRECTION TO TEMP.    ARE ZERO
          THERE IS ZERO HEAT FLUX EVERYWHERE
 
	UNSYMMETRIC NEW DIRECT SPARSE SOLVER RUNNING ON
 	1 HOST x 1 MPI RANK PER HOST x 8 THREADS PER RANK
        NUMBER OF EQUATIONS:  3993
        NUMBER OF RHS:        1
        NUMBER OF FLOPS:      6.013e+08
        SOLVER ELAPSED TIME:  9ms

               CONVERGENCE CHECKS FOR EQUILIBRIUM ITERATION     2


 AVERAGE FORCE                       405.       TIME AVG. FORCE        390.    
 LARGEST SCALED RESIDUAL FORCE      2.172E-02   AT NODE       1269   DOF  2
   INSTANCE: CUBE-1                                                                          
  CORRESPONDING RESIDUAL FORCE      2.172E-02
 LARGEST INCREMENT OF DISP.         1.000E-04   AT NODE          1   DOF  2
   INSTANCE: CUBE-1                                                                          
 LARGEST CORRECTION TO DISP.        1.166E-07   AT NODE        664   DOF  2
   INSTANCE: CUBE-1                                                                          
          THE FORCE     EQUILIBRIUM EQUATIONS HAVE CONVERGED

 AVERAGE HEAT FLUX                   0.00       TIME AVG. HEAT FLUX   1.000E-02
 ALL HEAT FLUX RESIDUALS ARE ZERO
 ALL TEMP.    INCREMENTS ARE ZERO
 ALL CORRECTION TO TEMP.    ARE ZERO
          THERE IS ZERO HEAT FLUX EVERYWHERE

 MAXIMUM NON-PRESCRIBED INCREMENT IN TEMPERATURE IS    0.00    

 ITERATION SUMMARY FOR THE INCREMENT:   2 TOTAL ITERATIONS, OF WHICH
   0 ARE SEVERE DISCONTINUITY ITERATIONS AND  2 ARE EQUILIBRIUM ITERATIONS.

 TIME INCREMENT COMPLETED   10.0    ,  FRACTION OF STEP COMPLETED  0.140    
 STEP TIME COMPLETED        140.    ,  TOTAL TIME COMPLETED         140.    


  INCREMENT    15 STARTS. ATTEMPT NUMBER  1, TIME INCREMENT   10.0    
 
	UNSYMMETRIC NEW DIRECT SPARSE SOLVER RUNNING ON
 	1 HOST x 1 MPI RANK PER HOST x 8 THREADS PER RANK
        NUMBER OF EQUATIONS:  3993
        NUMBER OF RHS:        1
        NUMBER OF FLOPS:      6.013e+08
        SOLVER ELAPSED TIME:  7ms

               CONVERGENCE CHECKS FOR EQUILIBRIUM ITERATION     1


 AVERAGE FORCE                       405.       TIME AVG. FORCE        391.    
 LARGEST SCALED RESIDUAL FORCE      -3.74       AT NODE        669   DOF  2
   INSTANCE: CUBE-1                                                                          
  CORRESPONDING RESIDUAL FORCE      -3.74    
 LARGEST INCREMENT OF DISP.         1.000E-04   AT NODE          1   DOF  2
   INSTANCE: CUBE-1                                                                          
 LARGEST CORRECTION TO DISP.       -1.785E-06   AT NODE        664   DOF  2
   INSTANCE: CUBE-1                                                                          
          FORCE     EQUILIBRIUM NOT ACHIEVED WITHIN TOLERANCE.

 AVERAGE HEAT FLUX                   0.00       TIME AVG. HEAT FLUX   1.000E-02
 ALL HEAT FLUX RESIDUALS ARE ZERO
 ALL TEMP.    INCREMENTS ARE ZERO
 ALL CORRECTION TO TEMP.    ARE ZERO
          THERE IS ZERO HEAT FLUX EVERYWHERE
 
	UNSYMMETRIC NEW DIRECT SPARSE SOLVER RUNNING ON
 	1 HOST x 1 MPI RANK PER HOST x 8 THREADS PER RANK
        NUMBER OF EQUATIONS:  3993
        NUMBER OF RHS:        1
        NUMBER OF FLOPS:      6.013e+08
        SOLVER ELAPSED TIME:  8ms

               CONVERGENCE CHECKS FOR EQUILIBRIUM ITERATION     2


 AVERAGE FORCE                       406.       TIME AVG. FORCE        391.    
 LARGEST SCALED RESIDUAL FORCE      6.733E-02   AT NODE        647   DOF  2
   INSTANCE: CUBE-1                                                                          
  CORRESPONDING RESIDUAL FORCE      6.733E-02
 LARGEST INCREMENT OF DISP.         1.000E-04   AT NODE          1   DOF  2
   INSTANCE: CUBE-1                                                                          
 LARGEST CORRECTION TO DISP.        1.171E-07   AT NODE        664   DOF  2
   INSTANCE: CUBE-1                                                                          
          THE FORCE     EQUILIBRIUM EQUATIONS HAVE CONVERGED

 AVERAGE HEAT FLUX                   0.00       TIME AVG. HEAT FLUX   1.000E-02
 ALL HEAT FLUX RESIDUALS ARE ZERO
 ALL TEMP.    INCREMENTS ARE ZERO
 ALL CORRECTION TO TEMP.    ARE ZERO
          THERE IS ZERO HEAT FLUX EVERYWHERE

 MAXIMUM NON-PRESCRIBED INCREMENT IN TEMPERATURE IS    0.00    

 ITERATION SUMMARY FOR THE INCREMENT:   2 TOTAL ITERATIONS, OF WHICH
   0 ARE SEVERE DISCONTINUITY ITERATIONS AND  2 ARE EQUILIBRIUM ITERATIONS.

 TIME INCREMENT COMPLETED   10.0    ,  FRACTION OF STEP COMPLETED  0.150    
 STEP TIME COMPLETED        150.    ,  TOTAL TIME COMPLETED         150.    


  INCREMENT    16 STARTS. ATTEMPT NUMBER  1, TIME INCREMENT   10.0    
 
	UNSYMMETRIC NEW DIRECT SPARSE SOLVER RUNNING ON
 	1 HOST x 1 MPI RANK PER HOST x 8 THREADS PER RANK
        NUMBER OF EQUATIONS:  3993
        NUMBER OF RHS:        1
        NUMBER OF FLOPS:      6.013e+08
        SOLVER ELAPSED TIME:  8ms

               CONVERGENCE CHECKS FOR EQUILIBRIUM ITERATION     1


 AVERAGE FORCE                       407.       TIME AVG. FORCE        392.    
 LARGEST SCALED RESIDUAL FORCE       2.33       AT NODE        668   DOF  2
   INSTANCE: CUBE-1                                                                          
  CORRESPONDING RESIDUAL FORCE       2.33    
 LARGEST INCREMENT OF DISP.         1.000E-04   AT NODE          1   DOF  2
   INSTANCE: CUBE-1                                                                          
 LARGEST CORRECTION TO DISP.       -1.815E-06   AT NODE        664   DOF  2
   INSTANCE: CUBE-1                                                                          
          FORCE     EQUILIBRIUM NOT ACHIEVED WITHIN TOLERANCE.

 AVERAGE HEAT FLUX                   0.00       TIME AVG. HEAT FLUX   1.000E-02
 ALL HEAT FLUX RESIDUALS ARE ZERO
 ALL TEMP.    INCREMENTS ARE ZERO
 ALL CORRECTION TO TEMP.    ARE ZERO
          THERE IS ZERO HEAT FLUX EVERYWHERE
 
	UNSYMMETRIC NEW DIRECT SPARSE SOLVER RUNNING ON
 	1 HOST x 1 MPI RANK PER HOST x 8 THREADS PER RANK
        NUMBER OF EQUATIONS:  3993
        NUMBER OF RHS:        1
        NUMBER OF FLOPS:      6.013e+08
        SOLVER ELAPSED TIME:  8ms

               CONVERGENCE CHECKS FOR EQUILIBRIUM ITERATION     2


 AVERAGE FORCE                       407.       TIME AVG. FORCE        392.    
 LARGEST SCALED RESIDUAL FORCE     -0.977       AT NODE        669   DOF  2
   INSTANCE: CUBE-1                                                                          
  CORRESPONDING RESIDUAL FORCE     -0.977    
 LARGEST INCREMENT OF DISP.         1.000E-04   AT NODE          1   DOF  2
   INSTANCE: CUBE-1                                                                          
 LARGEST CORRECTION TO DISP.        1.242E-07   AT NODE        664   DOF  2
   INSTANCE: CUBE-1                                                                          
          THE FORCE     EQUILIBRIUM EQUATIONS HAVE CONVERGED

 AVERAGE HEAT FLUX                   0.00       TIME AVG. HEAT FLUX   1.000E-02
 ALL HEAT FLUX RESIDUALS ARE ZERO
 ALL TEMP.    INCREMENTS ARE ZERO
 ALL CORRECTION TO TEMP.    ARE ZERO
          THERE IS ZERO HEAT FLUX EVERYWHERE

 MAXIMUM NON-PRESCRIBED INCREMENT IN TEMPERATURE IS    0.00    

 ITERATION SUMMARY FOR THE INCREMENT:   2 TOTAL ITERATIONS, OF WHICH
   0 ARE SEVERE DISCONTINUITY ITERATIONS AND  2 ARE EQUILIBRIUM ITERATIONS.

 TIME INCREMENT COMPLETED   10.0    ,  FRACTION OF STEP COMPLETED  0.160    
 STEP TIME COMPLETED        160.    ,  TOTAL TIME COMPLETED         160.    


  INCREMENT    17 STARTS. ATTEMPT NUMBER  1, TIME INCREMENT   10.0    
 
	UNSYMMETRIC NEW DIRECT SPARSE SOLVER RUNNING ON
 	1 HOST x 1 MPI RANK PER HOST x 8 THREADS PER RANK
        NUMBER OF EQUATIONS:  3993
        NUMBER OF RHS:        1
        NUMBER OF FLOPS:      6.013e+08
        SOLVER ELAPSED TIME:  9ms

               CONVERGENCE CHECKS FOR EQUILIBRIUM ITERATION     1


 AVERAGE FORCE                       407.       TIME AVG. FORCE        393.    
 LARGEST SCALED RESIDUAL FORCE       6.00       AT NODE        668   DOF  2
   INSTANCE: CUBE-1                                                                          
  CORRESPONDING RESIDUAL FORCE       6.00    
 LARGEST INCREMENT OF DISP.         1.000E-04   AT NODE          1   DOF  2
   INSTANCE: CUBE-1                                                                          
 LARGEST CORRECTION TO DISP.       -1.904E-06   AT NODE        663   DOF  2
   INSTANCE: CUBE-1                                                                          
          FORCE     EQUILIBRIUM NOT ACHIEVED WITHIN TOLERANCE.

 AVERAGE HEAT FLUX                   0.00       TIME AVG. HEAT FLUX   1.000E-02
 ALL HEAT FLUX RESIDUALS ARE ZERO
 ALL TEMP.    INCREMENTS ARE ZERO
 ALL CORRECTION TO TEMP.    ARE ZERO
          THERE IS ZERO HEAT FLUX EVERYWHERE
 
	UNSYMMETRIC NEW DIRECT SPARSE SOLVER RUNNING ON
 	1 HOST x 1 MPI RANK PER HOST x 8 THREADS PER RANK
        NUMBER OF EQUATIONS:  3993
        NUMBER OF RHS:        1
        NUMBER OF FLOPS:      6.013e+08
        SOLVER ELAPSED TIME:  11ms

               CONVERGENCE CHECKS FOR EQUILIBRIUM ITERATION     2


 AVERAGE FORCE                       408.       TIME AVG. FORCE        393.    
 LARGEST SCALED RESIDUAL FORCE     -0.270       AT NODE        537   DOF  2
   INSTANCE: CUBE-1                                                                          
  CORRESPONDING RESIDUAL FORCE     -0.270    
 LARGEST INCREMENT OF DISP.         1.000E-04   AT NODE          1   DOF  2
   INSTANCE: CUBE-1                                                                          
 LARGEST CORRECTION TO DISP.        1.300E-07   AT NODE        664   DOF  2
   INSTANCE: CUBE-1                                                                          
          THE FORCE     EQUILIBRIUM EQUATIONS HAVE CONVERGED

 AVERAGE HEAT FLUX                   0.00       TIME AVG. HEAT FLUX   1.000E-02
 ALL HEAT FLUX RESIDUALS ARE ZERO
 ALL TEMP.    INCREMENTS ARE ZERO
 ALL CORRECTION TO TEMP.    ARE ZERO
          THERE IS ZERO HEAT FLUX EVERYWHERE

 MAXIMUM NON-PRESCRIBED INCREMENT IN TEMPERATURE IS    0.00    

 ITERATION SUMMARY FOR THE INCREMENT:   2 TOTAL ITERATIONS, OF WHICH
   0 ARE SEVERE DISCONTINUITY ITERATIONS AND  2 ARE EQUILIBRIUM ITERATIONS.

 TIME INCREMENT COMPLETED   10.0    ,  FRACTION OF STEP COMPLETED  0.170    
 STEP TIME COMPLETED        170.    ,  TOTAL TIME COMPLETED         170.    


  INCREMENT    18 STARTS. ATTEMPT NUMBER  1, TIME INCREMENT   10.0    
 
	UNSYMMETRIC NEW DIRECT SPARSE SOLVER RUNNING ON
 	1 HOST x 1 MPI RANK PER HOST x 8 THREADS PER RANK
        NUMBER OF EQUATIONS:  3993
        NUMBER OF RHS:        1
        NUMBER OF FLOPS:      6.013e+08
        SOLVER ELAPSED TIME:  8ms

               CONVERGENCE CHECKS FOR EQUILIBRIUM ITERATION     1


 AVERAGE FORCE                       408.       TIME AVG. FORCE        394.    
 LARGEST SCALED RESIDUAL FORCE      -2.81       AT NODE        801   DOF  2
   INSTANCE: CUBE-1                                                                          
  CORRESPONDING RESIDUAL FORCE      -2.81    
 LARGEST INCREMENT OF DISP.         1.000E-04   AT NODE          1   DOF  2
   INSTANCE: CUBE-1                                                                          
 LARGEST CORRECTION TO DISP.       -1.929E-06   AT NODE        663   DOF  2
   INSTANCE: CUBE-1                                                                          
          FORCE     EQUILIBRIUM NOT ACHIEVED WITHIN TOLERANCE.

 AVERAGE HEAT FLUX                   0.00       TIME AVG. HEAT FLUX   1.000E-02
 ALL HEAT FLUX RESIDUALS ARE ZERO
 ALL TEMP.    INCREMENTS ARE ZERO
 ALL CORRECTION TO TEMP.    ARE ZERO
          THERE IS ZERO HEAT FLUX EVERYWHERE
 
	UNSYMMETRIC NEW DIRECT SPARSE SOLVER RUNNING ON
 	1 HOST x 1 MPI RANK PER HOST x 8 THREADS PER RANK
        NUMBER OF EQUATIONS:  3993
        NUMBER OF RHS:        1
        NUMBER OF FLOPS:      6.013e+08
        SOLVER ELAPSED TIME:  8ms

               CONVERGENCE CHECKS FOR EQUILIBRIUM ITERATION     2


 AVERAGE FORCE                       409.       TIME AVG. FORCE        394.    
 LARGEST SCALED RESIDUAL FORCE      0.107       AT NODE       1154   DOF  2
   INSTANCE: CUBE-1                                                                          
  CORRESPONDING RESIDUAL FORCE      0.107    
 LARGEST INCREMENT OF DISP.         1.000E-04   AT NODE          1   DOF  2
   INSTANCE: CUBE-1                                                                          
 LARGEST CORRECTION TO DISP.        1.330E-07   AT NODE        664   DOF  2
   INSTANCE: CUBE-1                                                                          
          THE FORCE     EQUILIBRIUM EQUATIONS HAVE CONVERGED

 AVERAGE HEAT FLUX                   0.00       TIME AVG. HEAT FLUX   1.000E-02
 ALL HEAT FLUX RESIDUALS ARE ZERO
 ALL TEMP.    INCREMENTS ARE ZERO
 ALL CORRECTION TO TEMP.    ARE ZERO
          THERE IS ZERO HEAT FLUX EVERYWHERE

 MAXIMUM NON-PRESCRIBED INCREMENT IN TEMPERATURE IS    0.00    

 ITERATION SUMMARY FOR THE INCREMENT:   2 TOTAL ITERATIONS, OF WHICH
   0 ARE SEVERE DISCONTINUITY ITERATIONS AND  2 ARE EQUILIBRIUM ITERATIONS.

 TIME INCREMENT COMPLETED   10.0    ,  FRACTION OF STEP COMPLETED  0.180    
 STEP TIME COMPLETED        180.    ,  TOTAL TIME COMPLETED         180.    


  INCREMENT    19 STARTS. ATTEMPT NUMBER  1, TIME INCREMENT   10.0    
 
	UNSYMMETRIC NEW DIRECT SPARSE SOLVER RUNNING ON
 	1 HOST x 1 MPI RANK PER HOST x 8 THREADS PER RANK
        NUMBER OF EQUATIONS:  3993
        NUMBER OF RHS:        1
        NUMBER OF FLOPS:      6.013e+08
        SOLVER ELAPSED TIME:  8ms

               CONVERGENCE CHECKS FOR EQUILIBRIUM ITERATION     1


 AVERAGE FORCE                       409.       TIME AVG. FORCE        395.    
 LARGEST SCALED RESIDUAL FORCE      -3.44       AT NODE        703   DOF  2
   INSTANCE: CUBE-1                                                                          
  CORRESPONDING RESIDUAL FORCE      -3.44    
 LARGEST INCREMENT OF DISP.         1.000E-04   AT NODE          1   DOF  2
   INSTANCE: CUBE-1                                                                          
 LARGEST CORRECTION TO DISP.       -1.939E-06   AT NODE        663   DOF  2
   INSTANCE: CUBE-1                                                                          
          FORCE     EQUILIBRIUM NOT ACHIEVED WITHIN TOLERANCE.

 AVERAGE HEAT FLUX                   0.00       TIME AVG. HEAT FLUX   1.000E-02
 ALL HEAT FLUX RESIDUALS ARE ZERO
 ALL TEMP.    INCREMENTS ARE ZERO
 ALL CORRECTION TO TEMP.    ARE ZERO
          THERE IS ZERO HEAT FLUX EVERYWHERE
 
	UNSYMMETRIC NEW DIRECT SPARSE SOLVER RUNNING ON
 	1 HOST x 1 MPI RANK PER HOST x 8 THREADS PER RANK
        NUMBER OF EQUATIONS:  3993
        NUMBER OF RHS:        1
        NUMBER OF FLOPS:      6.013e+08
        SOLVER ELAPSED TIME:  8ms

               CONVERGENCE CHECKS FOR EQUILIBRIUM ITERATION     2


 AVERAGE FORCE                       410.       TIME AVG. FORCE        395.    
 LARGEST SCALED RESIDUAL FORCE      8.141E-02   AT NODE        593   DOF  3
   INSTANCE: CUBE-1                                                                          
  CORRESPONDING RESIDUAL FORCE      8.141E-02
 LARGEST INCREMENT OF DISP.         1.000E-04   AT NODE          1   DOF  2
   INSTANCE: CUBE-1                                                                          
 LARGEST CORRECTION TO DISP.        1.388E-07   AT NODE        664   DOF  2
   INSTANCE: CUBE-1                                                                          
          THE FORCE     EQUILIBRIUM EQUATIONS HAVE CONVERGED

 AVERAGE HEAT FLUX                   0.00       TIME AVG. HEAT FLUX   1.000E-02
 ALL HEAT FLUX RESIDUALS ARE ZERO
 ALL TEMP.    INCREMENTS ARE ZERO
 ALL CORRECTION TO TEMP.    ARE ZERO
          THERE IS ZERO HEAT FLUX EVERYWHERE

 MAXIMUM NON-PRESCRIBED INCREMENT IN TEMPERATURE IS    0.00    

 ITERATION SUMMARY FOR THE INCREMENT:   2 TOTAL ITERATIONS, OF WHICH
   0 ARE SEVERE DISCONTINUITY ITERATIONS AND  2 ARE EQUILIBRIUM ITERATIONS.

 TIME INCREMENT COMPLETED   10.0    ,  FRACTION OF STEP COMPLETED  0.190    
 STEP TIME COMPLETED        190.    ,  TOTAL TIME COMPLETED         190.    


  INCREMENT    20 STARTS. ATTEMPT NUMBER  1, TIME INCREMENT   10.0    
 
	UNSYMMETRIC NEW DIRECT SPARSE SOLVER RUNNING ON
 	1 HOST x 1 MPI RANK PER HOST x 8 THREADS PER RANK
        NUMBER OF EQUATIONS:  3993
        NUMBER OF RHS:        1
        NUMBER OF FLOPS:      6.013e+08
        SOLVER ELAPSED TIME:  8ms

               CONVERGENCE CHECKS FOR EQUILIBRIUM ITERATION     1


 AVERAGE FORCE                       410.       TIME AVG. FORCE        396.    
 LARGEST SCALED RESIDUAL FORCE      -2.33       AT NODE        911   DOF  2
   INSTANCE: CUBE-1                                                                          
  CORRESPONDING RESIDUAL FORCE      -2.33    
 LARGEST INCREMENT OF DISP.         1.000E-04   AT NODE          1   DOF  2
   INSTANCE: CUBE-1                                                                          
 LARGEST CORRECTION TO DISP.       -1.972E-06   AT NODE        663   DOF  2
   INSTANCE: CUBE-1                                                                          
          FORCE     EQUILIBRIUM NOT ACHIEVED WITHIN TOLERANCE.

 AVERAGE HEAT FLUX                   0.00       TIME AVG. HEAT FLUX   1.000E-02
 ALL HEAT FLUX RESIDUALS ARE ZERO
 ALL TEMP.    INCREMENTS ARE ZERO
 ALL CORRECTION TO TEMP.    ARE ZERO
          THERE IS ZERO HEAT FLUX EVERYWHERE
 
	UNSYMMETRIC NEW DIRECT SPARSE SOLVER RUNNING ON
 	1 HOST x 1 MPI RANK PER HOST x 8 THREADS PER RANK
        NUMBER OF EQUATIONS:  3993
        NUMBER OF RHS:        1
        NUMBER OF FLOPS:      6.013e+08
        SOLVER ELAPSED TIME:  9ms

               CONVERGENCE CHECKS FOR EQUILIBRIUM ITERATION     2


 AVERAGE FORCE                       410.       TIME AVG. FORCE        396.    
 LARGEST SCALED RESIDUAL FORCE      3.195E-02   AT NODE        718   DOF  2
   INSTANCE: CUBE-1                                                                          
  CORRESPONDING RESIDUAL FORCE      3.195E-02
 LARGEST INCREMENT OF DISP.         1.000E-04   AT NODE          1   DOF  2
   INSTANCE: CUBE-1                                                                          
 LARGEST CORRECTION TO DISP.        1.359E-07   AT NODE        664   DOF  2
   INSTANCE: CUBE-1                                                                          
          THE FORCE     EQUILIBRIUM EQUATIONS HAVE CONVERGED

 AVERAGE HEAT FLUX                   0.00       TIME AVG. HEAT FLUX   1.000E-02
 ALL HEAT FLUX RESIDUALS ARE ZERO
 ALL TEMP.    INCREMENTS ARE ZERO
 ALL CORRECTION TO TEMP.    ARE ZERO
          THERE IS ZERO HEAT FLUX EVERYWHERE

 MAXIMUM NON-PRESCRIBED INCREMENT IN TEMPERATURE IS    0.00    

 ITERATION SUMMARY FOR THE INCREMENT:   2 TOTAL ITERATIONS, OF WHICH
   0 ARE SEVERE DISCONTINUITY ITERATIONS AND  2 ARE EQUILIBRIUM ITERATIONS.

 TIME INCREMENT COMPLETED   10.0    ,  FRACTION OF STEP COMPLETED  0.200    
 STEP TIME COMPLETED        200.    ,  TOTAL TIME COMPLETED         200.    


  INCREMENT    21 STARTS. ATTEMPT NUMBER  1, TIME INCREMENT   10.0    
 
	UNSYMMETRIC NEW DIRECT SPARSE SOLVER RUNNING ON
 	1 HOST x 1 MPI RANK PER HOST x 8 THREADS PER RANK
        NUMBER OF EQUATIONS:  3993
        NUMBER OF RHS:        1
        NUMBER OF FLOPS:      6.013e+08
        SOLVER ELAPSED TIME:  8ms

               CONVERGENCE CHECKS FOR EQUILIBRIUM ITERATION     1


 AVERAGE FORCE                       411.       TIME AVG. FORCE        396.    
 LARGEST SCALED RESIDUAL FORCE      -1.37       AT NODE        934   DOF  2
   INSTANCE: CUBE-1                                                                          
  CORRESPONDING RESIDUAL FORCE      -1.37    
 LARGEST INCREMENT OF DISP.         1.000E-04   AT NODE          1   DOF  2
   INSTANCE: CUBE-1                                                                          
 LARGEST CORRECTION TO DISP.       -2.006E-06   AT NODE        663   DOF  2
   INSTANCE: CUBE-1                                                                          
 ESTIMATE OF DISP.    CORRECTION    2.520E-08
 FORCE     EQUILIB. ACCEPTED BASED ON SMALL RESIDUAL AND ESTIMATED CORRECTION

 AVERAGE HEAT FLUX                   0.00       TIME AVG. HEAT FLUX   1.000E-02
 ALL HEAT FLUX RESIDUALS ARE ZERO
 ALL TEMP.    INCREMENTS ARE ZERO
 ALL CORRECTION TO TEMP.    ARE ZERO
          THERE IS ZERO HEAT FLUX EVERYWHERE

 MAXIMUM NON-PRESCRIBED INCREMENT IN TEMPERATURE IS    0.00    

 ITERATION SUMMARY FOR THE INCREMENT:   1 TOTAL ITERATIONS, OF WHICH
   0 ARE SEVERE DISCONTINUITY ITERATIONS AND  1 ARE EQUILIBRIUM ITERATIONS.

 TIME INCREMENT COMPLETED   10.0    ,  FRACTION OF STEP COMPLETED  0.210    
 STEP TIME COMPLETED        210.    ,  TOTAL TIME COMPLETED         210.    


  INCREMENT    22 STARTS. ATTEMPT NUMBER  1, TIME INCREMENT   10.0    
 
	UNSYMMETRIC NEW DIRECT SPARSE SOLVER RUNNING ON
 	1 HOST x 1 MPI RANK PER HOST x 8 THREADS PER RANK
        NUMBER OF EQUATIONS:  3993
        NUMBER OF RHS:        1
        NUMBER OF FLOPS:      6.013e+08
        SOLVER ELAPSED TIME:  9ms

               CONVERGENCE CHECKS FOR EQUILIBRIUM ITERATION     1


 AVERAGE FORCE                       412.       TIME AVG. FORCE        397.    
 LARGEST SCALED RESIDUAL FORCE      -1.31       AT NODE        789   DOF  2
   INSTANCE: CUBE-1                                                                          
  CORRESPONDING RESIDUAL FORCE      -1.31    
 LARGEST INCREMENT OF DISP.         1.000E-04   AT NODE          1   DOF  2
   INSTANCE: CUBE-1                                                                          
 LARGEST CORRECTION TO DISP.       -1.792E-06   AT NODE        663   DOF  2
   INSTANCE: CUBE-1                                                                          
 ESTIMATE OF DISP.    CORRECTION    2.091E-08
 FORCE     EQUILIB. ACCEPTED BASED ON SMALL RESIDUAL AND ESTIMATED CORRECTION

 AVERAGE HEAT FLUX                   0.00       TIME AVG. HEAT FLUX   1.000E-02
 ALL HEAT FLUX RESIDUALS ARE ZERO
 ALL TEMP.    INCREMENTS ARE ZERO
 ALL CORRECTION TO TEMP.    ARE ZERO
          THERE IS ZERO HEAT FLUX EVERYWHERE

 MAXIMUM NON-PRESCRIBED INCREMENT IN TEMPERATURE IS    0.00    

 ITERATION SUMMARY FOR THE INCREMENT:   1 TOTAL ITERATIONS, OF WHICH
   0 ARE SEVERE DISCONTINUITY ITERATIONS AND  1 ARE EQUILIBRIUM ITERATIONS.

 TIME INCREMENT COMPLETED   10.0    ,  FRACTION OF STEP COMPLETED  0.220    
 STEP TIME COMPLETED        220.    ,  TOTAL TIME COMPLETED         220.    


  INCREMENT    23 STARTS. ATTEMPT NUMBER  1, TIME INCREMENT   10.0    
 
	UNSYMMETRIC NEW DIRECT SPARSE SOLVER RUNNING ON
 	1 HOST x 1 MPI RANK PER HOST x 8 THREADS PER RANK
        NUMBER OF EQUATIONS:  3993
        NUMBER OF RHS:        1
        NUMBER OF FLOPS:      6.013e+08
        SOLVER ELAPSED TIME:  10ms

               CONVERGENCE CHECKS FOR EQUILIBRIUM ITERATION     1


 AVERAGE FORCE                       413.       TIME AVG. FORCE        398.    
 LARGEST SCALED RESIDUAL FORCE       4.71       AT NODE        667   DOF  2
   INSTANCE: CUBE-1                                                                          
  CORRESPONDING RESIDUAL FORCE       4.71    
 LARGEST INCREMENT OF DISP.         1.000E-04   AT NODE          1   DOF  2
   INSTANCE: CUBE-1                                                                          
 LARGEST CORRECTION TO DISP.       -1.890E-06   AT NODE        663   DOF  2
   INSTANCE: CUBE-1                                                                          
          FORCE     EQUILIBRIUM NOT ACHIEVED WITHIN TOLERANCE.

 AVERAGE HEAT FLUX                   0.00       TIME AVG. HEAT FLUX   1.000E-02
 ALL HEAT FLUX RESIDUALS ARE ZERO
 ALL TEMP.    INCREMENTS ARE ZERO
 ALL CORRECTION TO TEMP.    ARE ZERO
          THERE IS ZERO HEAT FLUX EVERYWHERE
 
	UNSYMMETRIC NEW DIRECT SPARSE SOLVER RUNNING ON
 	1 HOST x 1 MPI RANK PER HOST x 8 THREADS PER RANK
        NUMBER OF EQUATIONS:  3993
        NUMBER OF RHS:        1
        NUMBER OF FLOPS:      6.013e+08
        SOLVER ELAPSED TIME:  10ms

               CONVERGENCE CHECKS FOR EQUILIBRIUM ITERATION     2


 AVERAGE FORCE                       413.       TIME AVG. FORCE        398.    
 LARGEST SCALED RESIDUAL FORCE     -0.450       AT NODE        536   DOF  2
   INSTANCE: CUBE-1                                                                          
  CORRESPONDING RESIDUAL FORCE     -0.450    
 LARGEST INCREMENT OF DISP.         1.000E-04   AT NODE          1   DOF  2
   INSTANCE: CUBE-1                                                                          
 LARGEST CORRECTION TO DISP.        1.401E-07   AT NODE        664   DOF  2
   INSTANCE: CUBE-1                                                                          
          THE FORCE     EQUILIBRIUM EQUATIONS HAVE CONVERGED

 AVERAGE HEAT FLUX                   0.00       TIME AVG. HEAT FLUX   1.000E-02
 ALL HEAT FLUX RESIDUALS ARE ZERO
 ALL TEMP.    INCREMENTS ARE ZERO
 ALL CORRECTION TO TEMP.    ARE ZERO
          THERE IS ZERO HEAT FLUX EVERYWHERE

 MAXIMUM NON-PRESCRIBED INCREMENT IN TEMPERATURE IS    0.00    

 ITERATION SUMMARY FOR THE INCREMENT:   2 TOTAL ITERATIONS, OF WHICH
   0 ARE SEVERE DISCONTINUITY ITERATIONS AND  2 ARE EQUILIBRIUM ITERATIONS.

 TIME INCREMENT COMPLETED   10.0    ,  FRACTION OF STEP COMPLETED  0.230    
 STEP TIME COMPLETED        230.    ,  TOTAL TIME COMPLETED         230.    


  INCREMENT    24 STARTS. ATTEMPT NUMBER  1, TIME INCREMENT   10.0    
 
	UNSYMMETRIC NEW DIRECT SPARSE SOLVER RUNNING ON
 	1 HOST x 1 MPI RANK PER HOST x 8 THREADS PER RANK
        NUMBER OF EQUATIONS:  3993
        NUMBER OF RHS:        1
        NUMBER OF FLOPS:      6.013e+08
        SOLVER ELAPSED TIME:  9ms

               CONVERGENCE CHECKS FOR EQUILIBRIUM ITERATION     1


 AVERAGE FORCE                       414.       TIME AVG. FORCE        399.    
 LARGEST SCALED RESIDUAL FORCE      -5.73       AT NODE        800   DOF  2
   INSTANCE: CUBE-1                                                                          
  CORRESPONDING RESIDUAL FORCE      -5.73    
 LARGEST INCREMENT OF DISP.         1.000E-04   AT NODE          1   DOF  2
   INSTANCE: CUBE-1                                                                          
 LARGEST CORRECTION TO DISP.       -2.096E-06   AT NODE        663   DOF  2
   INSTANCE: CUBE-1                                                                          
          FORCE     EQUILIBRIUM NOT ACHIEVED WITHIN TOLERANCE.

 AVERAGE HEAT FLUX                   0.00       TIME AVG. HEAT FLUX   1.000E-02
 ALL HEAT FLUX RESIDUALS ARE ZERO
 ALL TEMP.    INCREMENTS ARE ZERO
 ALL CORRECTION TO TEMP.    ARE ZERO
          THERE IS ZERO HEAT FLUX EVERYWHERE
 
	UNSYMMETRIC NEW DIRECT SPARSE SOLVER RUNNING ON
 	1 HOST x 1 MPI RANK PER HOST x 8 THREADS PER RANK
        NUMBER OF EQUATIONS:  3993
        NUMBER OF RHS:        1
        NUMBER OF FLOPS:      6.013e+08
        SOLVER ELAPSED TIME:  11ms

               CONVERGENCE CHECKS FOR EQUILIBRIUM ITERATION     2


 AVERAGE FORCE                       414.       TIME AVG. FORCE        399.    
 LARGEST SCALED RESIDUAL FORCE      0.447       AT NODE        725   DOF  3
   INSTANCE: CUBE-1                                                                          
  CORRESPONDING RESIDUAL FORCE      0.447    
 LARGEST INCREMENT OF DISP.         1.000E-04   AT NODE          1   DOF  2
   INSTANCE: CUBE-1                                                                          
 LARGEST CORRECTION TO DISP.        1.523E-07   AT NODE        664   DOF  2
   INSTANCE: CUBE-1                                                                          
          THE FORCE     EQUILIBRIUM EQUATIONS HAVE CONVERGED

 AVERAGE HEAT FLUX                   0.00       TIME AVG. HEAT FLUX   1.000E-02
 ALL HEAT FLUX RESIDUALS ARE ZERO
 ALL TEMP.    INCREMENTS ARE ZERO
 ALL CORRECTION TO TEMP.    ARE ZERO
          THERE IS ZERO HEAT FLUX EVERYWHERE

 MAXIMUM NON-PRESCRIBED INCREMENT IN TEMPERATURE IS    0.00    

 ITERATION SUMMARY FOR THE INCREMENT:   2 TOTAL ITERATIONS, OF WHICH
   0 ARE SEVERE DISCONTINUITY ITERATIONS AND  2 ARE EQUILIBRIUM ITERATIONS.

 TIME INCREMENT COMPLETED   10.0    ,  FRACTION OF STEP COMPLETED  0.240    
 STEP TIME COMPLETED        240.    ,  TOTAL TIME COMPLETED         240.    


  INCREMENT    25 STARTS. ATTEMPT NUMBER  1, TIME INCREMENT   10.0    
 
	UNSYMMETRIC NEW DIRECT SPARSE SOLVER RUNNING ON
 	1 HOST x 1 MPI RANK PER HOST x 8 THREADS PER RANK
        NUMBER OF EQUATIONS:  3993
        NUMBER OF RHS:        1
        NUMBER OF FLOPS:      6.013e+08
        SOLVER ELAPSED TIME:  10ms

               CONVERGENCE CHECKS FOR EQUILIBRIUM ITERATION     1


 AVERAGE FORCE                       415.       TIME AVG. FORCE        399.    
 LARGEST SCALED RESIDUAL FORCE      -7.96       AT NODE        910   DOF  2
   INSTANCE: CUBE-1                                                                          
  CORRESPONDING RESIDUAL FORCE      -7.96    
 LARGEST INCREMENT OF DISP.         1.000E-04   AT NODE          1   DOF  2
   INSTANCE: CUBE-1                                                                          
 LARGEST CORRECTION TO DISP.       -1.979E-06   AT NODE        663   DOF  2
   INSTANCE: CUBE-1                                                                          
          FORCE     EQUILIBRIUM NOT ACHIEVED WITHIN TOLERANCE.

 AVERAGE HEAT FLUX                   0.00       TIME AVG. HEAT FLUX   1.000E-02
 ALL HEAT FLUX RESIDUALS ARE ZERO
 ALL TEMP.    INCREMENTS ARE ZERO
 ALL CORRECTION TO TEMP.    ARE ZERO
          THERE IS ZERO HEAT FLUX EVERYWHERE
 
	UNSYMMETRIC NEW DIRECT SPARSE SOLVER RUNNING ON
 	1 HOST x 1 MPI RANK PER HOST x 8 THREADS PER RANK
        NUMBER OF EQUATIONS:  3993
        NUMBER OF RHS:        1
        NUMBER OF FLOPS:      6.013e+08
        SOLVER ELAPSED TIME:  8ms

               CONVERGENCE CHECKS FOR EQUILIBRIUM ITERATION     2


 AVERAGE FORCE                       415.       TIME AVG. FORCE        399.    
 LARGEST SCALED RESIDUAL FORCE      0.482       AT NODE        404   DOF  2
   INSTANCE: CUBE-1                                                                          
  CORRESPONDING RESIDUAL FORCE      0.482    
 LARGEST INCREMENT OF DISP.         1.000E-04   AT NODE          1   DOF  2
   INSTANCE: CUBE-1                                                                          
 LARGEST CORRECTION TO DISP.        1.487E-07   AT NODE        663   DOF  2
   INSTANCE: CUBE-1                                                                          
          THE FORCE     EQUILIBRIUM EQUATIONS HAVE CONVERGED

 AVERAGE HEAT FLUX                   0.00       TIME AVG. HEAT FLUX   1.000E-02
 ALL HEAT FLUX RESIDUALS ARE ZERO
 ALL TEMP.    INCREMENTS ARE ZERO
 ALL CORRECTION TO TEMP.    ARE ZERO
          THERE IS ZERO HEAT FLUX EVERYWHERE

 MAXIMUM NON-PRESCRIBED INCREMENT IN TEMPERATURE IS    0.00    

 ITERATION SUMMARY FOR THE INCREMENT:   2 TOTAL ITERATIONS, OF WHICH
   0 ARE SEVERE DISCONTINUITY ITERATIONS AND  2 ARE EQUILIBRIUM ITERATIONS.

 TIME INCREMENT COMPLETED   10.0    ,  FRACTION OF STEP COMPLETED  0.250    
 STEP TIME COMPLETED        250.    ,  TOTAL TIME COMPLETED         250.    


  INCREMENT    26 STARTS. ATTEMPT NUMBER  1, TIME INCREMENT   10.0    
 
	UNSYMMETRIC NEW DIRECT SPARSE SOLVER RUNNING ON
 	1 HOST x 1 MPI RANK PER HOST x 8 THREADS PER RANK
        NUMBER OF EQUATIONS:  3993
        NUMBER OF RHS:        1
        NUMBER OF FLOPS:      6.013e+08
        SOLVER ELAPSED TIME:  9ms

               CONVERGENCE CHECKS FOR EQUILIBRIUM ITERATION     1


 AVERAGE FORCE                       416.       TIME AVG. FORCE        400.    
 LARGEST SCALED RESIDUAL FORCE      -2.43       AT NODE        933   DOF  2
   INSTANCE: CUBE-1                                                                          
  CORRESPONDING RESIDUAL FORCE      -2.43    
 LARGEST INCREMENT OF DISP.         1.000E-04   AT NODE          1   DOF  2
   INSTANCE: CUBE-1                                                                          
 LARGEST CORRECTION TO DISP.       -1.945E-06   AT NODE        663   DOF  2
   INSTANCE: CUBE-1                                                                          
          FORCE     EQUILIBRIUM NOT ACHIEVED WITHIN TOLERANCE.

 AVERAGE HEAT FLUX                   0.00       TIME AVG. HEAT FLUX   1.000E-02
 ALL HEAT FLUX RESIDUALS ARE ZERO
 ALL TEMP.    INCREMENTS ARE ZERO
 ALL CORRECTION TO TEMP.    ARE ZERO
          THERE IS ZERO HEAT FLUX EVERYWHERE
 
	UNSYMMETRIC NEW DIRECT SPARSE SOLVER RUNNING ON
 	1 HOST x 1 MPI RANK PER HOST x 8 THREADS PER RANK
        NUMBER OF EQUATIONS:  3993
        NUMBER OF RHS:        1
        NUMBER OF FLOPS:      6.013e+08
        SOLVER ELAPSED TIME:  9ms

               CONVERGENCE CHECKS FOR EQUILIBRIUM ITERATION     2


 AVERAGE FORCE                       416.       TIME AVG. FORCE        400.    
 LARGEST SCALED RESIDUAL FORCE      0.309       AT NODE        414   DOF  2
   INSTANCE: CUBE-1                                                                          
  CORRESPONDING RESIDUAL FORCE      0.309    
 LARGEST INCREMENT OF DISP.         1.000E-04   AT NODE          1   DOF  2
   INSTANCE: CUBE-1                                                                          
 LARGEST CORRECTION TO DISP.        1.416E-07   AT NODE        663   DOF  2
   INSTANCE: CUBE-1                                                                          
          THE FORCE     EQUILIBRIUM EQUATIONS HAVE CONVERGED

 AVERAGE HEAT FLUX                   0.00       TIME AVG. HEAT FLUX   1.000E-02
 ALL HEAT FLUX RESIDUALS ARE ZERO
 ALL TEMP.    INCREMENTS ARE ZERO
 ALL CORRECTION TO TEMP.    ARE ZERO
          THERE IS ZERO HEAT FLUX EVERYWHERE

 MAXIMUM NON-PRESCRIBED INCREMENT IN TEMPERATURE IS    0.00    

 ITERATION SUMMARY FOR THE INCREMENT:   2 TOTAL ITERATIONS, OF WHICH
   0 ARE SEVERE DISCONTINUITY ITERATIONS AND  2 ARE EQUILIBRIUM ITERATIONS.

 TIME INCREMENT COMPLETED   10.0    ,  FRACTION OF STEP COMPLETED  0.260    
 STEP TIME COMPLETED        260.    ,  TOTAL TIME COMPLETED         260.    


  INCREMENT    27 STARTS. ATTEMPT NUMBER  1, TIME INCREMENT   10.0    
 
	UNSYMMETRIC NEW DIRECT SPARSE SOLVER RUNNING ON
 	1 HOST x 1 MPI RANK PER HOST x 8 THREADS PER RANK
        NUMBER OF EQUATIONS:  3993
        NUMBER OF RHS:        1
        NUMBER OF FLOPS:      6.013e+08
        SOLVER ELAPSED TIME:  9ms

               CONVERGENCE CHECKS FOR EQUILIBRIUM ITERATION     1


 AVERAGE FORCE                       416.       TIME AVG. FORCE        400.    
 LARGEST SCALED RESIDUAL FORCE       2.45       AT NODE       1088   DOF  3
   INSTANCE: CUBE-1                                                                          
  CORRESPONDING RESIDUAL FORCE       2.45    
 LARGEST INCREMENT OF DISP.         1.000E-04   AT NODE          1   DOF  2
   INSTANCE: CUBE-1                                                                          
 LARGEST CORRECTION TO DISP.       -1.940E-06   AT NODE        663   DOF  2
   INSTANCE: CUBE-1                                                                          
          FORCE     EQUILIBRIUM NOT ACHIEVED WITHIN TOLERANCE.

 AVERAGE HEAT FLUX                   0.00       TIME AVG. HEAT FLUX   1.000E-02
 ALL HEAT FLUX RESIDUALS ARE ZERO
 ALL TEMP.    INCREMENTS ARE ZERO
 ALL CORRECTION TO TEMP.    ARE ZERO
          THERE IS ZERO HEAT FLUX EVERYWHERE
 
	UNSYMMETRIC NEW DIRECT SPARSE SOLVER RUNNING ON
 	1 HOST x 1 MPI RANK PER HOST x 8 THREADS PER RANK
        NUMBER OF EQUATIONS:  3993
        NUMBER OF RHS:        1
        NUMBER OF FLOPS:      6.013e+08
        SOLVER ELAPSED TIME:  9ms

               CONVERGENCE CHECKS FOR EQUILIBRIUM ITERATION     2


 AVERAGE FORCE                       416.       TIME AVG. FORCE        400.    
 LARGEST SCALED RESIDUAL FORCE      0.288       AT NODE        635   DOF  3
   INSTANCE: CUBE-1                                                                          
  CORRESPONDING RESIDUAL FORCE      0.288    
 LARGEST INCREMENT OF DISP.         1.000E-04   AT NODE          1   DOF  2
   INSTANCE: CUBE-1                                                                          
 LARGEST CORRECTION TO DISP.        1.384E-07   AT NODE        663   DOF  2
   INSTANCE: CUBE-1                                                                          
          THE FORCE     EQUILIBRIUM EQUATIONS HAVE CONVERGED

 AVERAGE HEAT FLUX                   0.00       TIME AVG. HEAT FLUX   1.000E-02
 ALL HEAT FLUX RESIDUALS ARE ZERO
 ALL TEMP.    INCREMENTS ARE ZERO
 ALL CORRECTION TO TEMP.    ARE ZERO
          THERE IS ZERO HEAT FLUX EVERYWHERE

 MAXIMUM NON-PRESCRIBED INCREMENT IN TEMPERATURE IS    0.00    

 ITERATION SUMMARY FOR THE INCREMENT:   2 TOTAL ITERATIONS, OF WHICH
   0 ARE SEVERE DISCONTINUITY ITERATIONS AND  2 ARE EQUILIBRIUM ITERATIONS.

 TIME INCREMENT COMPLETED   10.0    ,  FRACTION OF STEP COMPLETED  0.270    
 STEP TIME COMPLETED        270.    ,  TOTAL TIME COMPLETED         270.    


  INCREMENT    28 STARTS. ATTEMPT NUMBER  1, TIME INCREMENT   10.0    
 
	UNSYMMETRIC NEW DIRECT SPARSE SOLVER RUNNING ON
 	1 HOST x 1 MPI RANK PER HOST x 8 THREADS PER RANK
        NUMBER OF EQUATIONS:  3993
        NUMBER OF RHS:        1
        NUMBER OF FLOPS:      6.013e+08
        SOLVER ELAPSED TIME:  7ms

               CONVERGENCE CHECKS FOR EQUILIBRIUM ITERATION     1


 AVERAGE FORCE                       417.       TIME AVG. FORCE        401.    
 LARGEST SCALED RESIDUAL FORCE       10.4       AT NODE        666   DOF  2
   INSTANCE: CUBE-1                                                                          
  CORRESPONDING RESIDUAL FORCE       10.4    
 LARGEST INCREMENT OF DISP.         1.000E-04   AT NODE          1   DOF  2
   INSTANCE: CUBE-1                                                                          
 LARGEST CORRECTION TO DISP.       -1.910E-06   AT NODE        663   DOF  2
   INSTANCE: CUBE-1                                                                          
          FORCE     EQUILIBRIUM NOT ACHIEVED WITHIN TOLERANCE.

 AVERAGE HEAT FLUX                   0.00       TIME AVG. HEAT FLUX   1.000E-02
 ALL HEAT FLUX RESIDUALS ARE ZERO
 ALL TEMP.    INCREMENTS ARE ZERO
 ALL CORRECTION TO TEMP.    ARE ZERO
          THERE IS ZERO HEAT FLUX EVERYWHERE
 
	UNSYMMETRIC NEW DIRECT SPARSE SOLVER RUNNING ON
 	1 HOST x 1 MPI RANK PER HOST x 8 THREADS PER RANK
        NUMBER OF EQUATIONS:  3993
        NUMBER OF RHS:        1
        NUMBER OF FLOPS:      6.013e+08
        SOLVER ELAPSED TIME:  8ms

[...]
 LARGEST SCALED RESIDUAL FORCE     -0.524       AT NODE         57   DOF  1
   INSTANCE: CUBE-1                                                                          
  CORRESPONDING RESIDUAL FORCE     -0.524    
 LARGEST INCREMENT OF DISP.         1.000E-04   AT NODE          1   DOF  2
   INSTANCE: CUBE-1                                                                          
 LARGEST CORRECTION TO DISP.       -1.279E-06   AT NODE       1266   DOF  1
   INSTANCE: CUBE-1                                                                          
 ESTIMATE OF DISP.    CORRECTION   -2.786E-09
 FORCE     EQUILIB. ACCEPTED BASED ON SMALL RESIDUAL AND ESTIMATED CORRECTION

 AVERAGE HEAT FLUX                   0.00       TIME AVG. HEAT FLUX   1.000E-02
 ALL HEAT FLUX RESIDUALS ARE ZERO
 ALL TEMP.    INCREMENTS ARE ZERO
 ALL CORRECTION TO TEMP.    ARE ZERO
          THERE IS ZERO HEAT FLUX EVERYWHERE

 MAXIMUM NON-PRESCRIBED INCREMENT IN TEMPERATURE IS    0.00    

 ITERATION SUMMARY FOR THE INCREMENT:   1 TOTAL ITERATIONS, OF WHICH
   0 ARE SEVERE DISCONTINUITY ITERATIONS AND  1 ARE EQUILIBRIUM ITERATIONS.

 TIME INCREMENT COMPLETED   10.0    ,  FRACTION OF STEP COMPLETED  0.900    
 STEP TIME COMPLETED        900.    ,  TOTAL TIME COMPLETED         900.    


  INCREMENT    91 STARTS. ATTEMPT NUMBER  1, TIME INCREMENT   10.0    
 
	UNSYMMETRIC NEW DIRECT SPARSE SOLVER RUNNING ON
 	1 HOST x 1 MPI RANK PER HOST x 8 THREADS PER RANK
        NUMBER OF EQUATIONS:  3993
        NUMBER OF RHS:        1
        NUMBER OF FLOPS:      6.013e+08
        SOLVER ELAPSED TIME:  9ms

               CONVERGENCE CHECKS FOR EQUILIBRIUM ITERATION     1


 AVERAGE FORCE                       341.       TIME AVG. FORCE        389.    
 LARGEST SCALED RESIDUAL FORCE     -0.523       AT NODE         57   DOF  1
   INSTANCE: CUBE-1                                                                          
  CORRESPONDING RESIDUAL FORCE     -0.523    
 LARGEST INCREMENT OF DISP.         1.000E-04   AT NODE          1   DOF  2
   INSTANCE: CUBE-1                                                                          
 LARGEST CORRECTION TO DISP.       -1.324E-06   AT NODE        716   DOF  3
   INSTANCE: CUBE-1                                                                          
 ESTIMATE OF DISP.    CORRECTION   -2.963E-09
 FORCE     EQUILIB. ACCEPTED BASED ON SMALL RESIDUAL AND ESTIMATED CORRECTION

 AVERAGE HEAT FLUX                   0.00       TIME AVG. HEAT FLUX   1.000E-02
 ALL HEAT FLUX RESIDUALS ARE ZERO
 ALL TEMP.    INCREMENTS ARE ZERO
 ALL CORRECTION TO TEMP.    ARE ZERO
          THERE IS ZERO HEAT FLUX EVERYWHERE

 MAXIMUM NON-PRESCRIBED INCREMENT IN TEMPERATURE IS    0.00    

 ITERATION SUMMARY FOR THE INCREMENT:   1 TOTAL ITERATIONS, OF WHICH
   0 ARE SEVERE DISCONTINUITY ITERATIONS AND  1 ARE EQUILIBRIUM ITERATIONS.

 TIME INCREMENT COMPLETED   10.0    ,  FRACTION OF STEP COMPLETED  0.910    
 STEP TIME COMPLETED        910.    ,  TOTAL TIME COMPLETED         910.    


  INCREMENT    92 STARTS. ATTEMPT NUMBER  1, TIME INCREMENT   10.0    
 
	UNSYMMETRIC NEW DIRECT SPARSE SOLVER RUNNING ON
 	1 HOST x 1 MPI RANK PER HOST x 8 THREADS PER RANK
        NUMBER OF EQUATIONS:  3993
        NUMBER OF RHS:        1
        NUMBER OF FLOPS:      6.013e+08
        SOLVER ELAPSED TIME:  9ms

               CONVERGENCE CHECKS FOR EQUILIBRIUM ITERATION     1


 AVERAGE FORCE                       341.       TIME AVG. FORCE        388.    
 LARGEST SCALED RESIDUAL FORCE     -0.521       AT NODE        607   DOF  3
   INSTANCE: CUBE-1                                                                          
  CORRESPONDING RESIDUAL FORCE     -0.521    
 LARGEST INCREMENT OF DISP.         1.000E-04   AT NODE          1   DOF  2
   INSTANCE: CUBE-1                                                                          
 LARGEST CORRECTION TO DISP.       -1.368E-06   AT NODE       1266   DOF  1
   INSTANCE: CUBE-1                                                                          
 ESTIMATE OF DISP.    CORRECTION   -3.140E-09
 FORCE     EQUILIB. ACCEPTED BASED ON SMALL RESIDUAL AND ESTIMATED CORRECTION

 AVERAGE HEAT FLUX                   0.00       TIME AVG. HEAT FLUX   1.000E-02
 ALL HEAT FLUX RESIDUALS ARE ZERO
 ALL TEMP.    INCREMENTS ARE ZERO
 ALL CORRECTION TO TEMP.    ARE ZERO
          THERE IS ZERO HEAT FLUX EVERYWHERE

 MAXIMUM NON-PRESCRIBED INCREMENT IN TEMPERATURE IS    0.00    

 ITERATION SUMMARY FOR THE INCREMENT:   1 TOTAL ITERATIONS, OF WHICH
   0 ARE SEVERE DISCONTINUITY ITERATIONS AND  1 ARE EQUILIBRIUM ITERATIONS.

 TIME INCREMENT COMPLETED   10.0    ,  FRACTION OF STEP COMPLETED  0.920    
 STEP TIME COMPLETED        920.    ,  TOTAL TIME COMPLETED         920.    


  INCREMENT    93 STARTS. ATTEMPT NUMBER  1, TIME INCREMENT   10.0    
 
	UNSYMMETRIC NEW DIRECT SPARSE SOLVER RUNNING ON
 	1 HOST x 1 MPI RANK PER HOST x 8 THREADS PER RANK
        NUMBER OF EQUATIONS:  3993
        NUMBER OF RHS:        1
        NUMBER OF FLOPS:      6.013e+08
        SOLVER ELAPSED TIME:  9ms

               CONVERGENCE CHECKS FOR EQUILIBRIUM ITERATION     1


 AVERAGE FORCE                       341.       TIME AVG. FORCE        388.    
 LARGEST SCALED RESIDUAL FORCE     -0.518       AT NODE        607   DOF  3
   INSTANCE: CUBE-1                                                                          
  CORRESPONDING RESIDUAL FORCE     -0.518    
 LARGEST INCREMENT OF DISP.         1.000E-04   AT NODE          1   DOF  2
   INSTANCE: CUBE-1                                                                          
 LARGEST CORRECTION TO DISP.        1.411E-06   AT NODE         56   DOF  1
   INSTANCE: CUBE-1                                                                          
 ESTIMATE OF DISP.    CORRECTION    3.312E-09
 FORCE     EQUILIB. ACCEPTED BASED ON SMALL RESIDUAL AND ESTIMATED CORRECTION

 AVERAGE HEAT FLUX                   0.00       TIME AVG. HEAT FLUX   1.000E-02
 ALL HEAT FLUX RESIDUALS ARE ZERO
 ALL TEMP.    INCREMENTS ARE ZERO
 ALL CORRECTION TO TEMP.    ARE ZERO
          THERE IS ZERO HEAT FLUX EVERYWHERE

 MAXIMUM NON-PRESCRIBED INCREMENT IN TEMPERATURE IS    0.00    

 ITERATION SUMMARY FOR THE INCREMENT:   1 TOTAL ITERATIONS, OF WHICH
   0 ARE SEVERE DISCONTINUITY ITERATIONS AND  1 ARE EQUILIBRIUM ITERATIONS.

 TIME INCREMENT COMPLETED   10.0    ,  FRACTION OF STEP COMPLETED  0.930    
 STEP TIME COMPLETED        930.    ,  TOTAL TIME COMPLETED         930.    


  INCREMENT    94 STARTS. ATTEMPT NUMBER  1, TIME INCREMENT   10.0    
 
	UNSYMMETRIC NEW DIRECT SPARSE SOLVER RUNNING ON
 	1 HOST x 1 MPI RANK PER HOST x 8 THREADS PER RANK
        NUMBER OF EQUATIONS:  3993
        NUMBER OF RHS:        1
        NUMBER OF FLOPS:      6.013e+08
        SOLVER ELAPSED TIME:  10ms

               CONVERGENCE CHECKS FOR EQUILIBRIUM ITERATION     1


 AVERAGE FORCE                       341.       TIME AVG. FORCE        387.    
 LARGEST SCALED RESIDUAL FORCE     -0.513       AT NODE         57   DOF  1
   INSTANCE: CUBE-1                                                                          
  CORRESPONDING RESIDUAL FORCE     -0.513    
 LARGEST INCREMENT OF DISP.         1.000E-04   AT NODE          1   DOF  2
   INSTANCE: CUBE-1                                                                          
 LARGEST CORRECTION TO DISP.        1.451E-06   AT NODE         56   DOF  1
   INSTANCE: CUBE-1                                                                          
 ESTIMATE OF DISP.    CORRECTION    3.477E-09
 FORCE     EQUILIB. ACCEPTED BASED ON SMALL RESIDUAL AND ESTIMATED CORRECTION

 AVERAGE HEAT FLUX                   0.00       TIME AVG. HEAT FLUX   1.000E-02
 ALL HEAT FLUX RESIDUALS ARE ZERO
 ALL TEMP.    INCREMENTS ARE ZERO
 ALL CORRECTION TO TEMP.    ARE ZERO
          THERE IS ZERO HEAT FLUX EVERYWHERE

 MAXIMUM NON-PRESCRIBED INCREMENT IN TEMPERATURE IS    0.00    

 ITERATION SUMMARY FOR THE INCREMENT:   1 TOTAL ITERATIONS, OF WHICH
   0 ARE SEVERE DISCONTINUITY ITERATIONS AND  1 ARE EQUILIBRIUM ITERATIONS.

 TIME INCREMENT COMPLETED   10.0    ,  FRACTION OF STEP COMPLETED  0.940    
 STEP TIME COMPLETED        940.    ,  TOTAL TIME COMPLETED         940.    


  INCREMENT    95 STARTS. ATTEMPT NUMBER  1, TIME INCREMENT   10.0    
 
	UNSYMMETRIC NEW DIRECT SPARSE SOLVER RUNNING ON
 	1 HOST x 1 MPI RANK PER HOST x 8 THREADS PER RANK
        NUMBER OF EQUATIONS:  3993
        NUMBER OF RHS:        1
        NUMBER OF FLOPS:      6.013e+08
        SOLVER ELAPSED TIME:  9ms

               CONVERGENCE CHECKS FOR EQUILIBRIUM ITERATION     1


 AVERAGE FORCE                       341.       TIME AVG. FORCE        387.    
 LARGEST SCALED RESIDUAL FORCE     -0.508       AT NODE        607   DOF  3
   INSTANCE: CUBE-1                                                                          
  CORRESPONDING RESIDUAL FORCE     -0.508    
 LARGEST INCREMENT OF DISP.         1.000E-04   AT NODE          1   DOF  2
   INSTANCE: CUBE-1                                                                          
 LARGEST CORRECTION TO DISP.        1.497E-06   AT NODE        848   DOF  3
   INSTANCE: CUBE-1                                                                          
 ESTIMATE OF DISP.    CORRECTION    3.652E-09
 FORCE     EQUILIB. ACCEPTED BASED ON SMALL RESIDUAL AND ESTIMATED CORRECTION

 AVERAGE HEAT FLUX                   0.00       TIME AVG. HEAT FLUX   1.000E-02
 ALL HEAT FLUX RESIDUALS ARE ZERO
 ALL TEMP.    INCREMENTS ARE ZERO
 ALL CORRECTION TO TEMP.    ARE ZERO
          THERE IS ZERO HEAT FLUX EVERYWHERE

 MAXIMUM NON-PRESCRIBED INCREMENT IN TEMPERATURE IS    0.00    

 ITERATION SUMMARY FOR THE INCREMENT:   1 TOTAL ITERATIONS, OF WHICH
   0 ARE SEVERE DISCONTINUITY ITERATIONS AND  1 ARE EQUILIBRIUM ITERATIONS.

 TIME INCREMENT COMPLETED   10.0    ,  FRACTION OF STEP COMPLETED  0.950    
 STEP TIME COMPLETED        950.    ,  TOTAL TIME COMPLETED         950.    


  INCREMENT    96 STARTS. ATTEMPT NUMBER  1, TIME INCREMENT   10.0    
 
	UNSYMMETRIC NEW DIRECT SPARSE SOLVER RUNNING ON
 	1 HOST x 1 MPI RANK PER HOST x 8 THREADS PER RANK
        NUMBER OF EQUATIONS:  3993
        NUMBER OF RHS:        1
        NUMBER OF FLOPS:      6.013e+08
        SOLVER ELAPSED TIME:  9ms

               CONVERGENCE CHECKS FOR EQUILIBRIUM ITERATION     1


 AVERAGE FORCE                       341.       TIME AVG. FORCE        386.    
 LARGEST SCALED RESIDUAL FORCE     -0.501       AT NODE         57   DOF  1
   INSTANCE: CUBE-1                                                                          
  CORRESPONDING RESIDUAL FORCE     -0.501    
 LARGEST INCREMENT OF DISP.         1.000E-04   AT NODE          1   DOF  2
   INSTANCE: CUBE-1                                                                          
 LARGEST CORRECTION TO DISP.       -1.551E-06   AT NODE       1079   DOF  3
   INSTANCE: CUBE-1                                                                          
 ESTIMATE OF DISP.    CORRECTION   -3.839E-09
 FORCE     EQUILIB. ACCEPTED BASED ON SMALL RESIDUAL AND ESTIMATED CORRECTION

 AVERAGE HEAT FLUX                   0.00       TIME AVG. HEAT FLUX   1.000E-02
 ALL HEAT FLUX RESIDUALS ARE ZERO
 ALL TEMP.    INCREMENTS ARE ZERO
 ALL CORRECTION TO TEMP.    ARE ZERO
          THERE IS ZERO HEAT FLUX EVERYWHERE

 MAXIMUM NON-PRESCRIBED INCREMENT IN TEMPERATURE IS    0.00    

 ITERATION SUMMARY FOR THE INCREMENT:   1 TOTAL ITERATIONS, OF WHICH
   0 ARE SEVERE DISCONTINUITY ITERATIONS AND  1 ARE EQUILIBRIUM ITERATIONS.

 TIME INCREMENT COMPLETED   10.0    ,  FRACTION OF STEP COMPLETED  0.960    
 STEP TIME COMPLETED        960.    ,  TOTAL TIME COMPLETED         960.    


  INCREMENT    97 STARTS. ATTEMPT NUMBER  1, TIME INCREMENT   10.0    
 
	UNSYMMETRIC NEW DIRECT SPARSE SOLVER RUNNING ON
 	1 HOST x 1 MPI RANK PER HOST x 8 THREADS PER RANK
        NUMBER OF EQUATIONS:  3993
        NUMBER OF RHS:        1
        NUMBER OF FLOPS:      6.013e+08
        SOLVER ELAPSED TIME:  10ms

               CONVERGENCE CHECKS FOR EQUILIBRIUM ITERATION     1


 AVERAGE FORCE                       342.       TIME AVG. FORCE        386.    
 LARGEST SCALED RESIDUAL FORCE     -0.493       AT NODE        607   DOF  3
   INSTANCE: CUBE-1                                                                          
  CORRESPONDING RESIDUAL FORCE     -0.493    
 LARGEST INCREMENT OF DISP.         1.000E-04   AT NODE          1   DOF  2
   INSTANCE: CUBE-1                                                                          
 LARGEST CORRECTION TO DISP.       -1.606E-06   AT NODE       1233   DOF  1
   INSTANCE: CUBE-1                                                                          
 ESTIMATE OF DISP.    CORRECTION   -4.022E-09
 FORCE     EQUILIB. ACCEPTED BASED ON SMALL RESIDUAL AND ESTIMATED CORRECTION

 AVERAGE HEAT FLUX                   0.00       TIME AVG. HEAT FLUX   1.000E-02
 ALL HEAT FLUX RESIDUALS ARE ZERO
 ALL TEMP.    INCREMENTS ARE ZERO
 ALL CORRECTION TO TEMP.    ARE ZERO
          THERE IS ZERO HEAT FLUX EVERYWHERE

 MAXIMUM NON-PRESCRIBED INCREMENT IN TEMPERATURE IS    0.00    

 ITERATION SUMMARY FOR THE INCREMENT:   1 TOTAL ITERATIONS, OF WHICH
   0 ARE SEVERE DISCONTINUITY ITERATIONS AND  1 ARE EQUILIBRIUM ITERATIONS.

 TIME INCREMENT COMPLETED   10.0    ,  FRACTION OF STEP COMPLETED  0.970    
 STEP TIME COMPLETED        970.    ,  TOTAL TIME COMPLETED         970.    


  INCREMENT    98 STARTS. ATTEMPT NUMBER  1, TIME INCREMENT   10.0    
 
	UNSYMMETRIC NEW DIRECT SPARSE SOLVER RUNNING ON
 	1 HOST x 1 MPI RANK PER HOST x 8 THREADS PER RANK
        NUMBER OF EQUATIONS:  3993
        NUMBER OF RHS:        1
        NUMBER OF FLOPS:      6.013e+08
        SOLVER ELAPSED TIME:  10ms

               CONVERGENCE CHECKS FOR EQUILIBRIUM ITERATION     1


 AVERAGE FORCE                       342.       TIME AVG. FORCE        386.    
 LARGEST SCALED RESIDUAL FORCE     -0.484       AT NODE         57   DOF  1
   INSTANCE: CUBE-1                                                                          
  CORRESPONDING RESIDUAL FORCE     -0.484    
 LARGEST INCREMENT OF DISP.         1.000E-04   AT NODE          1   DOF  2
   INSTANCE: CUBE-1                                                                          
 LARGEST CORRECTION TO DISP.        1.661E-06   AT NODE        122   DOF  3
   INSTANCE: CUBE-1                                                                          
 ESTIMATE OF DISP.    CORRECTION    4.197E-09
 FORCE     EQUILIB. ACCEPTED BASED ON SMALL RESIDUAL AND ESTIMATED CORRECTION

 AVERAGE HEAT FLUX                   0.00       TIME AVG. HEAT FLUX   1.000E-02
 ALL HEAT FLUX RESIDUALS ARE ZERO
 ALL TEMP.    INCREMENTS ARE ZERO
 ALL CORRECTION TO TEMP.    ARE ZERO
          THERE IS ZERO HEAT FLUX EVERYWHERE

 MAXIMUM NON-PRESCRIBED INCREMENT IN TEMPERATURE IS    0.00    

 ITERATION SUMMARY FOR THE INCREMENT:   1 TOTAL ITERATIONS, OF WHICH
   0 ARE SEVERE DISCONTINUITY ITERATIONS AND  1 ARE EQUILIBRIUM ITERATIONS.

 TIME INCREMENT COMPLETED   10.0    ,  FRACTION OF STEP COMPLETED  0.980    
 STEP TIME COMPLETED        980.    ,  TOTAL TIME COMPLETED         980.    


  INCREMENT    99 STARTS. ATTEMPT NUMBER  1, TIME INCREMENT   10.0    
 
	UNSYMMETRIC NEW DIRECT SPARSE SOLVER RUNNING ON
 	1 HOST x 1 MPI RANK PER HOST x 8 THREADS PER RANK
        NUMBER OF EQUATIONS:  3993
        NUMBER OF RHS:        1
        NUMBER OF FLOPS:      6.013e+08
        SOLVER ELAPSED TIME:  9ms

               CONVERGENCE CHECKS FOR EQUILIBRIUM ITERATION     1


 AVERAGE FORCE                       342.       TIME AVG. FORCE        385.    
 LARGEST SCALED RESIDUAL FORCE     -0.474       AT NODE        607   DOF  3
   INSTANCE: CUBE-1                                                                          
  CORRESPONDING RESIDUAL FORCE     -0.474    
 LARGEST INCREMENT OF DISP.         1.000E-04   AT NODE          1   DOF  2
   INSTANCE: CUBE-1                                                                          
 LARGEST CORRECTION TO DISP.        1.717E-06   AT NODE         12   DOF  1
   INSTANCE: CUBE-1                                                                          
 ESTIMATE OF DISP.    CORRECTION    4.360E-09
 FORCE     EQUILIB. ACCEPTED BASED ON SMALL RESIDUAL AND ESTIMATED CORRECTION

 AVERAGE HEAT FLUX                   0.00       TIME AVG. HEAT FLUX   1.000E-02
 ALL HEAT FLUX RESIDUALS ARE ZERO
 ALL TEMP.    INCREMENTS ARE ZERO
 ALL CORRECTION TO TEMP.    ARE ZERO
          THERE IS ZERO HEAT FLUX EVERYWHERE

 MAXIMUM NON-PRESCRIBED INCREMENT IN TEMPERATURE IS    0.00    

 ITERATION SUMMARY FOR THE INCREMENT:   1 TOTAL ITERATIONS, OF WHICH
   0 ARE SEVERE DISCONTINUITY ITERATIONS AND  1 ARE EQUILIBRIUM ITERATIONS.

 TIME INCREMENT COMPLETED   10.0    ,  FRACTION OF STEP COMPLETED  0.990    
 STEP TIME COMPLETED        990.    ,  TOTAL TIME COMPLETED         990.    


  INCREMENT   100 STARTS. ATTEMPT NUMBER  1, TIME INCREMENT   10.0    
 
	UNSYMMETRIC NEW DIRECT SPARSE SOLVER RUNNING ON
 	1 HOST x 1 MPI RANK PER HOST x 8 THREADS PER RANK
        NUMBER OF EQUATIONS:  3993
        NUMBER OF RHS:        1
        NUMBER OF FLOPS:      6.013e+08
        SOLVER ELAPSED TIME:  8ms

               CONVERGENCE CHECKS FOR EQUILIBRIUM ITERATION     1


 AVERAGE FORCE                       343.       TIME AVG. FORCE        385.    
 LARGEST SCALED RESIDUAL FORCE     -0.464       AT NODE         57   DOF  1
   INSTANCE: CUBE-1                                                                          
  CORRESPONDING RESIDUAL FORCE     -0.464    
 LARGEST INCREMENT OF DISP.         1.000E-04   AT NODE          1   DOF  2
   INSTANCE: CUBE-1                                                                          
 LARGEST CORRECTION TO DISP.        1.767E-06   AT NODE        122   DOF  3
   INSTANCE: CUBE-1                                                                          
 ESTIMATE OF DISP.    CORRECTION    4.495E-09
 FORCE     EQUILIB. ACCEPTED BASED ON SMALL RESIDUAL AND ESTIMATED CORRECTION

 AVERAGE HEAT FLUX                   0.00       TIME AVG. HEAT FLUX   1.000E-02
 ALL HEAT FLUX RESIDUALS ARE ZERO
 ALL TEMP.    INCREMENTS ARE ZERO
 ALL CORRECTION TO TEMP.    ARE ZERO
          THERE IS ZERO HEAT FLUX EVERYWHERE

 MAXIMUM NON-PRESCRIBED INCREMENT IN TEMPERATURE IS    0.00    

 ITERATION SUMMARY FOR THE INCREMENT:   1 TOTAL ITERATIONS, OF WHICH
   0 ARE SEVERE DISCONTINUITY ITERATIONS AND  1 ARE EQUILIBRIUM ITERATIONS.

 TIME INCREMENT COMPLETED   10.0    ,  FRACTION OF STEP COMPLETED   1.00    
 STEP TIME COMPLETED       1.000E+03,  TOTAL TIME COMPLETED        1.000E+03


          THE ANALYSIS HAS BEEN COMPLETED



     ANALYSIS SUMMARY:
     TOTAL OF        100  INCREMENTS
                       0  CUTBACKS IN AUTOMATIC INCREMENTATION
                     164  ITERATIONS INCLUDING CONTACT ITERATIONS IF PRESENT
                     164  PASSES THROUGH THE EQUATION SOLVER OF WHICH 
                     164  INVOLVE MATRIX DECOMPOSITION, INCLUDING
                       0  DECOMPOSITION(S) OF THE MASS MATRIX
                       1  REORDERING OF EQUATIONS TO MINIMIZE WAVEFRONT
                       0  ADDITIONAL RESIDUAL EVALUATIONS FOR LINE SEARCHES
                       0  ADDITIONAL OPERATOR EVALUATIONS FOR LINE SEARCHES
                       1  WARNING MESSAGES DURING USER INPUT PROCESSING
                       0  WARNING MESSAGES DURING ANALYSIS
                       0  ANALYSIS WARNINGS ARE NUMERICAL PROBLEM MESSAGES
                       0  ANALYSIS WARNINGS ARE NEGATIVE EIGENVALUE MESSAGES
                       0  ERROR MESSAGES



     JOB TIME SUMMARY
       USER TIME (SEC)      =      31.    
       SYSTEM TIME (SEC)    =      6.3    
       TOTAL CPU TIME (SEC) =      38.    
       WALLCLOCK TIME (SEC) =           16
       MEMORY PEAK (GB)     =            0
