*Heading
** Job name: mesh-1 Model name: Model-Full-mesh-1
** Generated by: Abaqus/CAE 2023.HF4
*Preprint, echo=NO, model=NO, history=NO, contact=NO
**
** PARTS
**
*Part, name=CHD2-m
*Node
      1, 0.00562500022, -0.0841666684, 0.00100000005
      2,           0., -0.0346875004, 0.00100000005
      3,           0., -0.0782291666,           0.
      4, -0.00374999992, -0.0604166649,           0.
      5, 0.00374999992, -0.0327083319, 0.00100000005
      6, 0.00749999983, -0.0980208367, 0.00066666666
      7, -0.00187499996, -0.042604167, 0.00100000005
      8, 0.00374999992, -0.066354163, 0.00100000005
      9, 0.00187499996, -0.0148958331,           0.
     10, 0.00374999992, -0.0524999984, 0.00100000005
     11, 0.00187499996, -0.074270837,           0.
     12, 0.00374999992, -0.0505208336, 0.00100000005
     13, -0.00187499996, -0.0346875004,           0.
     14, -0.00187499996, -0.0861458331,           0.
     15, 0.00187499996, -0.0861458331, 0.00100000005
     16, -0.00374999992, -0.0445833318, 0.00100000005
     17, 0.00187499996, -0.0683333352,           0.
     18, 0.00374999992, -0.0604166649,           0.
     19, -0.00374999992, -0.0980208367,           0.
     20, -0.00749999983, -0.0366666652, 0.00033333333
** ... 23866 like lines cut
*Element, type=C3D8T
   1,  442,  404, 1107, 1084,  468,  599,    6,  760
   2,  404,  405, 1108, 1107,  599,  600,   35,    6
   3,  405,  450,  580, 1108,  600,  469,  601,   35
   4, 1084, 1107, 1109,  995,  760,    6,  959,  759
   5, 1107, 1108, 1110, 1109,    6,   35,  783,  959
   6, 1108,  580, 1040, 1110,   35,  601,  604,  783
   7,  995, 1109, 1111,  556,  759,  959,  178,  756
   8, 1109, 1110, 1112, 1111,  959,  783,  186,  178
   9, 1110, 1040,  314, 1112,  783,  604,  605,  186
  10,  556, 1111, 1113,  742,  756,  178,  927,  755
  11, 1111, 1112, 1114, 1113,  178,  186,   24,  927
  12, 1112,  314,  509, 1114,  186,  605,  606,   24
  13,  742, 1113, 1115, 1012,  755,  927,   99,  754
  14, 1113, 1114, 1116, 1115,  927,   24,  544,   99
  15, 1114,  509,  789, 1116,   24,  606,  609,  544
  16, 1012, 1115, 1117,  662,  754,   99, 1058,  751
  17, 1115, 1116, 1118, 1117,   99,  544,  209, 1058
  18, 1116,  789,  257, 1118,  544,  609,  610,  209
  19,  662, 1117, 1119,  154,  751, 1058,  331,  750
  20, 1117, 1118, 1120, 1119, 1058,  209,  812,  331
** ... 18747 like lines cut
*Nset, nset=Set-42, generate
     1,  23886,      1
*Elset, elset=Set-42, generate
     1,  18767,      1
** Section: Section-1-CP1000-m
*Solid Section, elset=Set-42, material=CP1000-m
,
*End Part
**  
**
** ASSEMBLY
**
*Assembly, name=Assembly
**  
*Instance, name=CHD2-m-1, part=CHD2-m
*End Instance
**  
*Nset, nset=Set-1, instance=CHD2-m-1
  404,  405,  406,  407,  408,  409,  410,  411,  412,  413,  414,  415,  416,  417,  436,  437
  438,  439,  440,  441,  442,  450,  451,  452,  453,  454,  455,  456,  468,  469,  472,  475
  599,  600,  761,  764, 1765, 1766, 1767, 1768, 1769, 1770, 1771, 1772, 1773, 1774, 1775, 1776
 1777, 1778, 1779, 1780, 1781, 1782, 1783, 1784, 1785, 1786, 1787, 1788, 1789, 1790, 1791, 1792
 1793, 1794, 1795, 1796, 1797, 1798, 1799, 1800, 1801, 1802, 1803, 1804, 1805, 1806, 1807, 1808
 1809, 1810, 1811, 1812, 1813, 1814, 1815, 1816, 1817, 1818, 1819, 1820, 1821, 1822, 1823, 1824
 1825, 1826, 1827, 1828, 1829, 1830, 1831, 1832, 1833, 1834, 1835, 1836, 1837, 1838, 1839, 1840
 1841, 1842, 1843, 1844, 1845, 1846, 1847, 1848, 1849, 1850, 1851, 1852, 1853, 1854, 1855, 1856
 1857, 1858, 1859, 1860, 1861, 1862, 1863, 1864, 1865, 1866, 1867, 1868, 1869, 1870, 1871, 1872
 1873, 1874, 1875, 1876, 1877, 1878, 1879, 1880, 1881, 1882, 1883, 1884, 1885, 1886, 1887, 1888
 1889, 1890, 1891, 1892, 1893, 1894, 1895, 1896, 1897, 1898, 1899, 1900, 1901, 1902, 1903, 1904
 1905, 1906, 1907, 1908, 1909, 1910, 1911, 1912, 1913, 1914, 1915, 1916, 1917, 1918, 1919, 1920
 1921, 1922, 1923, 1924, 1925, 1926, 1927, 1928, 1929, 1930, 1931, 1932, 1933, 1934, 1935, 1936
 1937, 1938, 1939, 1940, 1941, 1942, 1943, 1944, 1945, 1946, 1947, 1948, 1949, 1950, 1951, 1952
 1953, 1954, 1955, 1956, 1957, 1958, 1959, 1960, 1961, 1962, 1963, 1964, 1965, 1966, 1967, 1968
 1969, 1970, 1971, 1972, 1973, 1974, 1975, 1976, 1977, 1978, 1979, 1980, 1981, 1982, 1983, 1984
 1985, 1986, 1987, 1988, 1989, 1990, 1991, 1992, 1993, 1994, 1995, 1996, 1997, 1998, 1999, 2000
 2001, 2002, 2003, 2004, 2005, 2006, 2007, 2008, 2009, 2010, 2011, 2012, 2013, 2014, 2015, 2016
 2017, 2018, 2019, 2020, 2021, 2022, 2023, 2024, 2025, 2026, 2027, 2028, 2029, 2030, 2031, 2032
 2033, 2034, 2035, 2036, 2037, 2038, 2039, 2040, 2041, 2042, 2043, 2044, 2045, 2046, 2047, 2048
** ... 10 like lines cut
*Elset, elset=Set-1, instance=CHD2-m-1, generate
 1153,  1440,     1
*Nset, nset=Set-2, instance=CHD2-m-1
     3,     4,     9,    11,    13,    14,    17,    18,    19,    22,    23,    26,    29,    31,    32,    33
    34,    36,    37,    38,    45,    50,    51,    52,    53,    54,    57,    58,    59,    69,    72,    74
    76,    77,    78,    79,    81,    82,    84,    86,    87,    88,    92,    94,   101,   102,   104,   107
   108,   109,   112,   113,   114,   116,   117,   118,   119,   121,   122,   123,   129,   132,   134,   136
   138,   139,   141,   143,   144,   146,   147,   148,   149,   156,   157,   158,   159,   162,   163,   165
   167,   170,   172,   174,   176,   177,   179,   180,   181,   182,   185,   189,   193,   194,   197,   199
   205,   207,   210,   211,   212,   216,   218,   222,   224,   227,   233,   235,   236,   239,   241,   242
   244,   248,   257,   259,   262,   263,   267,   276,   279,   288,   293,   304,   308,   314,   319,   322
   336,   339,   350,   351,   353,   354,   356,   357,   359,   360,   362,   363,   365,   366,   368,   369
   371,   372,   374,   375,   377,   378,   380,   381,   383,   384,   386,   387,   389,   390,   391,   392
   393,   394,   395,   396,   397,   398,   399,   400,   401,   402,   403,   443,   444,   445,   446,   447
   448,   449,   450,   451,   452,   453,   454,   455,   456,   459,   461,   463,   465,   469,   470,   472
   473,   479,   481,   483,   486,   493,   495,   496,   500,   501,   504,   506,   509,   511,   513,   516
   525,   526,   528,   531,   534,   536,   538,   541,   546,   547,   550,   553,   555,   558,   560,   561
   563,   566,   568,   569,   571,   573,   574,   575,   576,   580,   582,   588,   591,   593,   594,   596
   597,   601,   602,   604,   605,   606,   608,   609,   610,   611,   612,   614,   615,   616,   618,   619
   620,   621,   622,   623,   624,   625,   626,   629,   630,   631,   632,   633,   634,   635,   636,   637
   638,   639,   640,   641,   644,   645,   646,   647,   648,   649,   650,   651,   654,   655,   656,   657
   658,   659,   660,   661,   663,   664,   665,   666,   668,   669,   670,   671,   673,   674,   675,   676
   677,   678,   679,   683,   687,   688,   693,   703,   707,   708,   713,   722,   723,   727,   728,   732
** ... 253 like lines cut
*Elset, elset=Set-2, instance=CHD2-m-1
     3,     6,     9,    12,    15,    18,    21,    24,    27,    30,    33,    36,    39,    42,    45,    48
    51,    54,    57,    60,    63,    66,    69,    72,    75,    78,    81,    84,    87,    90,    93,    96
    99,   102,   105,   108,   111,   114,   117,   120,   123,   126,   129,   132,   135,   138,   141,   144
   147,   150,   153,   156,   159,   162,   165,   168,   171,   174,   177,   180,   183,   186,   189,   192
   195,   198,   201,   204,   207,   210,   213,   216,   219,   222,   225,   228,   231,   234,   237,   240
   243,   246,   249,   252,   255,   258,   261,   264,   267,   270,   273,   276,   279,   282,   285,   288
   291,   294,   297,   300,   303,   306,   309,   312,   315,   318,   321,   324,   327,   330,   333,   336
   339,   342,   345,   348,   351,   354,   357,   360,   363,   366,   369,   372,   375,   378,   381,   384
   387,   390,   393,   396,   399,   402,   405,   408,   411,   414,   417,   420,   423,   426,   429,   432
   435,   438,   441,   444,   447,   450,   453,   456,   459,   462,   465,   468,   471,   474,   477,   480
   483,   486,   489,   492,   495,   498,   501,   504,   507,   510,   513,   516,   519,   522,   525,   528
   531,   534,   537,   540,   543,   546,   549,   552,   555,   558,   561,   564,   567,   570,   573,   576
   579,   582,   585,   588,   591,   594,   597,   600,   603,   606,   609,   612,   615,   618,   621,   624
   627,   630,   633,   636,   639,   642,   645,   648,   651,   654,   657,   660,   663,   666,   669,   672
   675,   678,   681,   684,   687,   690,   693,   696,   699,   702,   705,   708,   711,   714,   717,   720
   723,   726,   729,   732,   735,   738,   741,   744,   747,   750,   753,   756,   759,   762,   765,   768
   771,   774,   777,   780,   783,   786,   789,   792,   795,   798,   801,   804,   807,   810,   813,   816
   819,   822,   825,   828,   831,   834,   837,   840,   843,   846,   849,   852,   855,   858,   861,   864
   867,   870,   873,   876,   879,   882,   885,   888,   891,   894,   897,   900,   903,   906,   909,   912
   915,   918,   921,   924,   927,   930,   933,   936,   939,   942,   945,   948,   951,   954,   957,   960
** ... 240 like lines cut
*Nset, nset=Set-3, instance=CHD2-m-1, generate
 2197,  2664,     1
*Elset, elset=Set-3, instance=CHD2-m-1, generate
 1441,  1728,     1
*Nset, nset=Set-4, instance=CHD2-m-1
 2210, 2224, 2238, 2241, 2257, 2266, 2274, 2285, 2295, 2304, 2317, 2328, 2331, 2340, 2344, 2348
 2352, 2361, 2373, 2382, 2388, 2406, 2428, 2429, 2436, 2447, 2451, 2455, 2460, 2462, 2488, 2490
 2491, 2498, 2506, 2509
*Elset, elset=Set-4, instance=CHD2-m-1
 1474, 1475, 1476, 1510, 1511, 1512, 1546, 1547, 1548, 1582, 1583, 1584, 1618, 1619, 1620, 1654
 1655, 1656, 1690, 1691, 1692, 1726, 1727, 1728
*Nset, nset=Set-5, instance=CHD2-m-1, generate
 2197,  2664,     1
*Elset, elset=Set-5, instance=CHD2-m-1, generate
 1441,  1728,     1
*Nset, nset=Set-6, instance=CHD2-m-1
 2210, 2224, 2238, 2241, 2257, 2266, 2274, 2285, 2295, 2304, 2317, 2328, 2331, 2340, 2344, 2348
 2352, 2361, 2373, 2382, 2388, 2406, 2428, 2429, 2436, 2447, 2451, 2455, 2460, 2462, 2488, 2490
 2491, 2498, 2506, 2509
*Elset, elset=Set-6, instance=CHD2-m-1
 1474, 1475, 1476, 1510, 1511, 1512, 1546, 1547, 1548, 1582, 1583, 1584, 1618, 1619, 1620, 1654
 1655, 1656, 1690, 1691, 1692, 1726, 1727, 1728
*Nset, nset=Set-7, instance=CHD2-m-1, generate
     1,  23886,      1
*Elset, elset=Set-7, instance=CHD2-m-1, generate
     1,  18767,      1
*Nset, nset=Set-8, instance=CHD2-m-1
     3,     4,     9,    11,    13,    14,    17,    18,    19,    22,    23,    26,    29,    31,    32,    33
    34,    36,    37,    38,    45,    50,    51,    52,    53,    54,    57,    58,    59,    69,    72,    74
    76,    77,    78,    79,    81,    82,    84,    86,    87,    88,    92,    94,   101,   102,   104,   107
   108,   109,   112,   113,   114,   116,   117,   118,   119,   121,   122,   123,   129,   132,   134,   136
   138,   139,   141,   143,   144,   146,   147,   148,   149,   156,   157,   158,   159,   162,   163,   165
   167,   170,   172,   174,   176,   177,   179,   180,   181,   182,   185,   189,   193,   194,   197,   199
   205,   207,   210,   211,   212,   216,   218,   222,   224,   227,   233,   235,   236,   239,   241,   242
   244,   248,   257,   259,   262,   263,   267,   276,   279,   288,   293,   304,   308,   314,   319,   322
   336,   339,   350,   351,   353,   354,   356,   357,   359,   360,   362,   363,   365,   366,   368,   369
   371,   372,   374,   375,   377,   378,   380,   381,   383,   384,   386,   387,   389,   390,   391,   392
   393,   394,   395,   396,   397,   398,   399,   400,   401,   402,   403,   443,   444,   445,   446,   447
   448,   449,   450,   451,   452,   453,   454,   455,   456,   459,   461,   463,   465,   469,   470,   472
   473,   479,   481,   483,   486,   493,   495,   496,   500,   501,   504,   506,   509,   511,   513,   516
   525,   526,   528,   531,   534,   536,   538,   541,   546,   547,   550,   553,   555,   558,   560,   561
   563,   566,   568,   569,   571,   573,   574,   575,   576,   580,   582,   588,   591,   593,   594,   596
   597,   601,   602,   604,   605,   606,   608,   609,   610,   611,   612,   614,   615,   616,   618,   619
   620,   621,   622,   623,   624,   625,   626,   629,   630,   631,   632,   633,   634,   635,   636,   637
   638,   639,   640,   641,   644,   645,   646,   647,   648,   649,   650,   651,   654,   655,   656,   657
   658,   659,   660,   661,   663,   664,   665,   666,   668,   669,   670,   671,   673,   674,   675,   676
   677,   678,   679,   683,   687,   688,   693,   703,   707,   708,   713,   722,   723,   727,   728,   732
** ... 253 like lines cut
*Elset, elset=Set-8, instance=CHD2-m-1
     3,     6,     9,    12,    15,    18,    21,    24,    27,    30,    33,    36,    39,    42,    45,    48
    51,    54,    57,    60,    63,    66,    69,    72,    75,    78,    81,    84,    87,    90,    93,    96
    99,   102,   105,   108,   111,   114,   117,   120,   123,   126,   129,   132,   135,   138,   141,   144
   147,   150,   153,   156,   159,   162,   165,   168,   171,   174,   177,   180,   183,   186,   189,   192
   195,   198,   201,   204,   207,   210,   213,   216,   219,   222,   225,   228,   231,   234,   237,   240
   243,   246,   249,   252,   255,   258,   261,   264,   267,   270,   273,   276,   279,   282,   285,   288
   291,   294,   297,   300,   303,   306,   309,   312,   315,   318,   321,   324,   327,   330,   333,   336
   339,   342,   345,   348,   351,   354,   357,   360,   363,   366,   369,   372,   375,   378,   381,   384
   387,   390,   393,   396,   399,   402,   405,   408,   411,   414,   417,   420,   423,   426,   429,   432
   435,   438,   441,   444,   447,   450,   453,   456,   459,   462,   465,   468,   471,   474,   477,   480
   483,   486,   489,   492,   495,   498,   501,   504,   507,   510,   513,   516,   519,   522,   525,   528
   531,   534,   537,   540,   543,   546,   549,   552,   555,   558,   561,   564,   567,   570,   573,   576
   579,   582,   585,   588,   591,   594,   597,   600,   603,   606,   609,   612,   615,   618,   621,   624
   627,   630,   633,   636,   639,   642,   645,   648,   651,   654,   657,   660,   663,   666,   669,   672
   675,   678,   681,   684,   687,   690,   693,   696,   699,   702,   705,   708,   711,   714,   717,   720
   723,   726,   729,   732,   735,   738,   741,   744,   747,   750,   753,   756,   759,   762,   765,   768
   771,   774,   777,   780,   783,   786,   789,   792,   795,   798,   801,   804,   807,   810,   813,   816
   819,   822,   825,   828,   831,   834,   837,   840,   843,   846,   849,   852,   855,   858,   861,   864
   867,   870,   873,   876,   879,   882,   885,   888,   891,   894,   897,   900,   903,   906,   909,   912
   915,   918,   921,   924,   927,   930,   933,   936,   939,   942,   945,   948,   951,   954,   957,   960
** ... 240 like lines cut
*End Assembly
*Amplitude, name=Amp-1
             0.,              0.,           1000.,              1.
** 
** MATERIALS
** 
*Material, name=CP1000-m
*Density
7890.,
*Depvar
      1,
*User Material, constants=4, type=THERMAL
 8.31446,    300.,   2e-06, 3.8e-11
*User Material, constants=162, type=MECHANICAL
 2.1e+11,         0.3, 8.39646e+08,          0., 8.80025e+08,      0.0003, 9.06975e+08,      0.0005
 9.26275e+08,       0.001, 9.26275e+08,       0.002, 9.39393e+08,       0.003, 9.49756e+08,       0.004
 9.58495e+08,       0.005, 9.66134e+08,       0.006,  9.7296e+08,       0.007,  9.7915e+08,       0.008
 9.84823e+08,       0.009, 9.90061e+08,        0.01, 1.02747e+09,        0.02, 1.04975e+09,        0.03
 1.06431e+09,        0.04, 1.07441e+09,        0.05, 1.08181e+09,        0.06, 1.08749e+09,        0.07
 1.09206e+09,        0.08, 1.09587e+09,        0.09, 1.09914e+09,         0.1, 1.11118e+09,        0.15
 1.11963e+09,         0.2, 1.12625e+09,        0.25, 1.13172e+09,         0.3, 1.13638e+09,        0.35
 1.14044e+09,         0.4, 1.14405e+09,        0.45,  1.1473e+09,         0.5, 1.15025e+09,        0.55
 1.15296e+09,         0.6, 1.15546e+09,        0.65, 1.15779e+09,         0.7, 1.15996e+09,        0.75
   1.162e+09,         0.8, 1.16392e+09,        0.85, 1.16574e+09,         0.9, 1.16746e+09,        0.95
 1.16911e+09,          1., 1.17067e+09,        1.05, 1.17216e+09,         1.1,  1.1736e+09,        1.15
 1.17497e+09,         1.2, 1.17629e+09,        1.25, 1.17756e+09,         1.3, 1.17879e+09,        1.35
 1.17997e+09,         1.4, 1.18112e+09,        1.45, 1.18222e+09,         1.5,  1.1833e+09,        1.55
 1.18434e+09,         1.6, 1.18535e+09,        1.65, 1.18633e+09,         1.7, 1.18728e+09,        1.75
 1.18821e+09,         1.8, 1.18912e+09,        1.85,    1.19e+09,         1.9, 1.19086e+09,        1.95
  1.1917e+09,          2., 1.19252e+09,        2.05, 1.19332e+09,         2.1,  1.1941e+09,        2.15
 1.19487e+09,         2.2, 1.19562e+09,        2.25, 1.19635e+09,         2.3, 1.19707e+09,        2.35
 1.19777e+09,         2.4, 1.19847e+09,        2.45, 1.19914e+09,         2.5, 1.19981e+09,        2.55
 1.20046e+09,         2.6,  1.2011e+09,        2.65, 1.20173e+09,         2.7, 1.20235e+09,        2.75
 1.20296e+09,         2.8, 1.20355e+09,        2.85, 1.20414e+09,         2.9, 1.20472e+09,        2.95
 1.20529e+09,          3.
** 
** BOUNDARY CONDITIONS
** 
** Name: bottom-part-encastre Type: Symmetry/Antisymmetry/Encastre
*Boundary
Set-1, ENCASTRE
** 
** PREDEFINED FIELDS
** 
** Name: Cbar_L   Type: Temperature
*Initial Conditions, type=TEMPERATURE
Set-7, 0.
** ----------------------------------------------------------------
** 
** STEP: Step-1
** 
*Step, name=Step-1, nlgeom=YES, inc=100000
*Coupled Temperature-displacement, creep=none, deltmx=1.
10., 1000., 0.01, 10.
** 
** BOUNDARY CONDITIONS
** 
** Name: top-part-constraint Type: Displacement/Rotation
*Boundary
Set-5, 1, 1
Set-5, 3, 3
Set-5, 4, 4
Set-5, 5, 5
Set-5, 6, 6
** Name: top-surface-disp Type: Displacement/Rotation
*Boundary, amplitude=Amp-1
Set-6, 2, 2, 0.0019
** 
** OUTPUT REQUESTS
** 
*Restart, write, frequency=0
** 
** FIELD OUTPUT: F-Output-1
** 
*Output, field, number interval=100
*Node Output
RF, U
** 
** HISTORY OUTPUT: H-Output-1
** 
*Output, history, variable=PRESELECT
*End Step
