1

   Abaqus 2023.HF4                                  Date 21-Oct-2024   Time 14:00:51
   For use by AALTO UNIVERSITY under license from Dassault Systemes or its subsidiary.

                                                                                 
                                                                                 
 STEP    1     INCREMENT     1     STEP TIME    0.00    


                        S T E P       1     S T A T I C   A N A L Y S I S


                                                                                          

     AUTOMATIC TIME CONTROL WITH -
          A SUGGESTED INITIAL TIME INCREMENT OF                 5.00    
          AND A TOTAL TIME PERIOD OF                           1.000E+03
          THE MINIMUM TIME INCREMENT ALLOWED IS                1.000E-07
          THE MAXIMUM TIME INCREMENT ALLOWED IS                 5.00    

     LINEAR EQUATION SOLVER TYPE         DIRECT SPARSE

 CONVERGENCE TOLERANCE PARAMETERS FOR FORCE    
     CRITERION FOR RESIDUAL FORCE     FOR A NONLINEAR PROBLEM          5.000E-03
     CRITERION FOR DISP.    CORRECTION IN A NONLINEAR PROBLEM          1.000E-02
     INITIAL VALUE OF TIME AVERAGE FORCE                               1.000E-02
     AVERAGE FORCE     IS TIME AVERAGE FORCE    
     ALTERNATE CRIT. FOR RESIDUAL FORCE     FOR A NONLINEAR PROBLEM    2.000E-02
     CRITERION FOR ZERO FORCE     RELATIVE TO TIME AVRG. FORCE         1.000E-05
     CRITERION FOR RESIDUAL FORCE     WHEN THERE IS ZERO FLUX          1.000E-05
     CRITERION FOR DISP.    CORRECTION WHEN THERE IS ZERO FLUX         1.000E-03
     CRITERION FOR RESIDUAL FORCE     FOR A LINEAR INCREMENT           1.000E-08
     FIELD CONVERSION RATIO                                             1.00    
     CRITERION FOR ZERO FORCE     REL. TO TIME AVRG. MAX. FORCE        1.000E-05
     CRITERION FOR ZERO DISP.    RELATIVE TO CHARACTERISTIC LENGTH     1.000E-08

     VOLUMETRIC STRAIN COMPATIBILITY TOLERANCE FOR HYBRID SOLIDS       1.000E-05
     AXIAL STRAIN COMPATIBILITY TOLERANCE FOR HYBRID BEAMS             1.000E-05
     TRANS. SHEAR STRAIN COMPATIBILITY TOLERANCE FOR HYBRID BEAMS      1.000E-05
     SOFT CONTACT CONSTRAINT COMPATIBILITY TOLERANCE FOR P>P0          5.000E-03
     SOFT CONTACT CONSTRAINT COMPATIBILITY TOLERANCE FOR P=0.0         0.100    
     CONTACT FORCE ERROR TOLERANCE FOR CONVERT SDI=YES                 1.00    
     DISPLACEMENT COMPATIBILITY TOLERANCE FOR DCOUP ELEMENTS           1.000E-05
     ROTATION COMPATIBILITY TOLERANCE FOR DCOUP ELEMENTS               1.000E-05

 EQUILIBRIUM WILL BE CHECKED FOR SEVERE DISCONTINUITY ITERATIONS

 TIME INCREMENTATION CONTROL PARAMETERS:
     FIRST EQUILIBRIUM ITERATION FOR CONSECUTIVE DIVERGENCE CHECK              4
     EQUILIBRIUM ITERATION AT WHICH LOG. CONVERGENCE RATE CHECK BEGINS         8
     EQUILIBRIUM ITERATION AFTER WHICH ALTERNATE RESIDUAL IS USED              9
     MAXIMUM EQUILIBRIUM ITERATIONS ALLOWED                                   16
     EQUILIBRIUM ITERATION COUNT FOR CUT-BACK IN NEXT INCREMENT               10
     MAXIMUM EQUILIB. ITERS IN TWO INCREMENTS FOR TIME INCREMENT INCREASE      4
     MAXIMUM ITERATIONS FOR SEVERE DISCONTINUITIES                            50
     MAXIMUM ATTEMPTS ALLOWED IN AN INCREMENT                                  5
     MAXIMUM DISCON. ITERS IN TWO INCREMENTS FOR TIME INCREMENT INCREASE      50
     MAXIMUM CONTACT AUGMENTATIONS FOR *SURFACE BEHAVIOR,AUGMENTED LAGRANGE   50
     CUT-BACK FACTOR AFTER DIVERGENCE                                 0.2500    
     CUT-BACK FACTOR FOR TOO SLOW CONVERGENCE                         0.5000    
     CUT-BACK FACTOR AFTER TOO MANY EQUILIBRIUM ITERATIONS            0.7500    
     CUT-BACK FACTOR AFTER TOO MANY SEVERE DISCONTINUITY ITERATIONS   0.2500    
     CUT-BACK FACTOR AFTER PROBLEMS IN ELEMENT ASSEMBLY               0.2500    
     INCREASE FACTOR AFTER TWO INCREMENTS THAT CONVERGE QUICKLY        1.500    
     MAX. TIME INCREMENT INCREASE FACTOR ALLOWED                       1.500    
     MAX. TIME INCREMENT INCREASE FACTOR ALLOWED (DYNAMICS)            1.250    
     MAX. TIME INCREMENT INCREASE FACTOR ALLOWED (DIFFUSION)           2.000    
     MINIMUM TIME INCREMENT RATIO FOR EXTRAPOLATION TO OCCUR          0.1000    
     MAX. RATIO OF TIME INCREMENT TO STABILITY LIMIT                   1.000    
     FRACTION OF STABILITY LIMIT FOR NEW TIME INCREMENT               0.9500    
     TIME INCREMENT INCREASE FACTOR BEFORE A TIME POINT                1.000    
     GLOBAL STABILIZATION CONTROL IS NOT USED

          PRINT OF INCREMENT NUMBER, TIME, ETC., EVERY    1  INCREMENTS

     THE MAXIMUM NUMBER OF INCREMENTS IN THIS STEP IS                 1000000

          LARGE DISPLACEMENT THEORY WILL BE USED

     LINEAR EXTRAPOLATION WILL BE USED

     CHARACTERISTIC ELEMENT LENGTH     1.943E-04

     DETAILS REGARDING ACTUAL SOLUTION WAVEFRONT REQUESTED

     DETAILED OUTPUT OF DIAGNOSTICS TO DATABASE REQUESTED

     PRINT OF INCREMENT NUMBER, TIME, ETC., TO THE MESSAGE FILE EVERY     1  INCREMENTS

     ELEMENT OPERATIONS WILL BE CARRIED OUT IN PARALLEL USING   8 THREADS ON 1 DOMAIN

     PARALLEL CONTACT TRACKING ENABLED


     COLLECTING MODEL CONSTRAINT INFORMATION FOR OVERCONSTRAINT CHECKS

     COLLECTING STEP CONSTRAINT INFORMATION FOR OVERCONSTRAINT CHECKS


  INCREMENT     1 STARTS. ATTEMPT NUMBER  1, TIME INCREMENT   5.00    
 
     INITIAL ELEMENT LOAD BALANCE
            DOMAIN    1     THREAD    NUMBER OF ELEMENTS
                              1            8392
                              2            7776
                              3            8068
                              4            7888
                              5            8776
                              6            8112
                              7            8512
                              8            8184
 
	SYMMETRIC NEW DIRECT SPARSE SOLVER RUNNING ON
 	1 HOST x 1 MPI RANK PER HOST x 8 THREADS PER RANK
        NUMBER OF EQUATIONS:  124146
        NUMBER OF RHS:        1
        NUMBER OF FLOPS:      3.486e+10
        SOLVER ELAPSED TIME:  287ms

               CONVERGENCE CHECKS FOR EQUILIBRIUM ITERATION     1


 AVERAGE FORCE                      1.678E-02   TIME AVG. FORCE       1.678E-02
 LARGEST SCALED RESIDUAL FORCE      1.237E-03   AT NODE       2286   DOF  3
   INSTANCE: CHD4                                                                            
  CORRESPONDING RESIDUAL FORCE      1.237E-03
 LARGEST INCREMENT OF DISP.         7.550E-06   AT NODE         11   DOF  2
   INSTANCE: CHD4                                                                            
 LARGEST CORRECTION TO DISP.        7.550E-06   AT NODE         11   DOF  2
   INSTANCE: CHD4                                                                            
          FORCE     EQUILIBRIUM NOT ACHIEVED WITHIN TOLERANCE.
 
	SYMMETRIC NEW DIRECT SPARSE SOLVER RUNNING ON
 	1 HOST x 1 MPI RANK PER HOST x 8 THREADS PER RANK
        NUMBER OF EQUATIONS:  124146
        NUMBER OF RHS:        1
        NUMBER OF FLOPS:      3.486e+10
        SOLVER ELAPSED TIME:  325ms

               CONVERGENCE CHECKS FOR EQUILIBRIUM ITERATION     2


 AVERAGE FORCE                      1.678E-02   TIME AVG. FORCE       1.678E-02
 LARGEST SCALED RESIDUAL FORCE     -2.776E-08   AT NODE       2285   DOF  3
   INSTANCE: CHD4                                                                            
  CORRESPONDING RESIDUAL FORCE     -2.776E-08
 LARGEST INCREMENT OF DISP.         7.550E-06   AT NODE         11   DOF  2
   INSTANCE: CHD4                                                                            
 LARGEST CORRECTION TO DISP.        2.433E-11   AT NODE        596   DOF  2
   INSTANCE: CHD4                                                                            
          THE FORCE     EQUILIBRIUM EQUATIONS HAVE CONVERGED

 ITERATION SUMMARY FOR THE INCREMENT:   2 TOTAL ITERATIONS, OF WHICH
   0 ARE SEVERE DISCONTINUITY ITERATIONS AND  2 ARE EQUILIBRIUM ITERATIONS.

 TIME INCREMENT COMPLETED   5.00    ,  FRACTION OF STEP COMPLETED  5.000E-03
 STEP TIME COMPLETED        5.00    ,  TOTAL TIME COMPLETED         5.00    


  INCREMENT     2 STARTS. ATTEMPT NUMBER  1, TIME INCREMENT   5.00    
 
	SYMMETRIC NEW DIRECT SPARSE SOLVER RUNNING ON
 	1 HOST x 1 MPI RANK PER HOST x 8 THREADS PER RANK
        NUMBER OF EQUATIONS:  124146
        NUMBER OF RHS:        1
        NUMBER OF FLOPS:      3.486e+10
        SOLVER ELAPSED TIME:  297ms

               CONVERGENCE CHECKS FOR EQUILIBRIUM ITERATION     1


 AVERAGE FORCE                      7.226E-02   TIME AVG. FORCE       4.452E-02
 LARGEST SCALED RESIDUAL FORCE     -1.108E-07   AT NODE       2285   DOF  3
   INSTANCE: CHD4                                                                            
  CORRESPONDING RESIDUAL FORCE     -1.108E-07
 LARGEST INCREMENT OF DISP.         7.550E-06   AT NODE         11   DOF  2
   INSTANCE: CHD4                                                                            
 LARGEST CORRECTION TO DISP.        4.865E-11   AT NODE        596   DOF  2
   INSTANCE: CHD4                                                                            
          THE FORCE     EQUILIBRIUM EQUATIONS HAVE CONVERGED

 ITERATION SUMMARY FOR THE INCREMENT:   1 TOTAL ITERATIONS, OF WHICH
   0 ARE SEVERE DISCONTINUITY ITERATIONS AND  1 ARE EQUILIBRIUM ITERATIONS.

 TIME INCREMENT COMPLETED   5.00    ,  FRACTION OF STEP COMPLETED  1.000E-02
 STEP TIME COMPLETED        10.0    ,  TOTAL TIME COMPLETED         10.0    


  INCREMENT     3 STARTS. ATTEMPT NUMBER  1, TIME INCREMENT   5.00    
 
	SYMMETRIC NEW DIRECT SPARSE SOLVER RUNNING ON
 	1 HOST x 1 MPI RANK PER HOST x 8 THREADS PER RANK
        NUMBER OF EQUATIONS:  124146
        NUMBER OF RHS:        1
        NUMBER OF FLOPS:      3.486e+10
        SOLVER ELAPSED TIME:  322ms

               CONVERGENCE CHECKS FOR EQUILIBRIUM ITERATION     1


 AVERAGE FORCE                      0.108       TIME AVG. FORCE       6.581E-02
 LARGEST SCALED RESIDUAL FORCE     -1.661E-07   AT NODE       1240   DOF  3
   INSTANCE: CHD4                                                                            
  CORRESPONDING RESIDUAL FORCE     -1.661E-07
 LARGEST INCREMENT OF DISP.         7.550E-06   AT NODE         11   DOF  2
   INSTANCE: CHD4                                                                            
 LARGEST CORRECTION TO DISP.        4.865E-11   AT NODE        596   DOF  2
   INSTANCE: CHD4                                                                            
          THE FORCE     EQUILIBRIUM EQUATIONS HAVE CONVERGED

 ITERATION SUMMARY FOR THE INCREMENT:   1 TOTAL ITERATIONS, OF WHICH
   0 ARE SEVERE DISCONTINUITY ITERATIONS AND  1 ARE EQUILIBRIUM ITERATIONS.

 TIME INCREMENT COMPLETED   5.00    ,  FRACTION OF STEP COMPLETED  1.500E-02
 STEP TIME COMPLETED        15.0    ,  TOTAL TIME COMPLETED         15.0    


  INCREMENT     4 STARTS. ATTEMPT NUMBER  1, TIME INCREMENT   5.00    
 
	SYMMETRIC NEW DIRECT SPARSE SOLVER RUNNING ON
 	1 HOST x 1 MPI RANK PER HOST x 8 THREADS PER RANK
        NUMBER OF EQUATIONS:  124146
        NUMBER OF RHS:        1
        NUMBER OF FLOPS:      3.486e+10
        SOLVER ELAPSED TIME:  300ms

               CONVERGENCE CHECKS FOR EQUILIBRIUM ITERATION     1


 AVERAGE FORCE                      0.145       TIME AVG. FORCE       8.548E-02
 LARGEST SCALED RESIDUAL FORCE     -2.214E-07   AT NODE       2285   DOF  3
   INSTANCE: CHD4                                                                            
  CORRESPONDING RESIDUAL FORCE     -2.214E-07
 LARGEST INCREMENT OF DISP.         7.550E-06   AT NODE         11   DOF  2
   INSTANCE: CHD4                                                                            
 LARGEST CORRECTION TO DISP.        4.864E-11   AT NODE        596   DOF  2
   INSTANCE: CHD4                                                                            
          THE FORCE     EQUILIBRIUM EQUATIONS HAVE CONVERGED

 ITERATION SUMMARY FOR THE INCREMENT:   1 TOTAL ITERATIONS, OF WHICH
   0 ARE SEVERE DISCONTINUITY ITERATIONS AND  1 ARE EQUILIBRIUM ITERATIONS.

 TIME INCREMENT COMPLETED   5.00    ,  FRACTION OF STEP COMPLETED  2.000E-02
 STEP TIME COMPLETED        20.0    ,  TOTAL TIME COMPLETED         20.0    


  INCREMENT     5 STARTS. ATTEMPT NUMBER  1, TIME INCREMENT   5.00    
 
	SYMMETRIC NEW DIRECT SPARSE SOLVER RUNNING ON
 	1 HOST x 1 MPI RANK PER HOST x 8 THREADS PER RANK
        NUMBER OF EQUATIONS:  124146
        NUMBER OF RHS:        1
        NUMBER OF FLOPS:      3.486e+10
        SOLVER ELAPSED TIME:  483ms

               CONVERGENCE CHECKS FOR EQUILIBRIUM ITERATION     1


 AVERAGE FORCE                      0.181       TIME AVG. FORCE       0.105    
 LARGEST SCALED RESIDUAL FORCE     -2.766E-07   AT NODE       2285   DOF  3
   INSTANCE: CHD4                                                                            
  CORRESPONDING RESIDUAL FORCE     -2.766E-07
 LARGEST INCREMENT OF DISP.         7.550E-06   AT NODE         11   DOF  2
   INSTANCE: CHD4                                                                            
 LARGEST CORRECTION TO DISP.        4.863E-11   AT NODE        596   DOF  2
   INSTANCE: CHD4                                                                            
          THE FORCE     EQUILIBRIUM EQUATIONS HAVE CONVERGED

 ITERATION SUMMARY FOR THE INCREMENT:   1 TOTAL ITERATIONS, OF WHICH
   0 ARE SEVERE DISCONTINUITY ITERATIONS AND  1 ARE EQUILIBRIUM ITERATIONS.

 TIME INCREMENT COMPLETED   5.00    ,  FRACTION OF STEP COMPLETED  2.500E-02
 STEP TIME COMPLETED        25.0    ,  TOTAL TIME COMPLETED         25.0    


  INCREMENT     6 STARTS. ATTEMPT NUMBER  1, TIME INCREMENT   5.00    
 
	SYMMETRIC NEW DIRECT SPARSE SOLVER RUNNING ON
 	1 HOST x 1 MPI RANK PER HOST x 8 THREADS PER RANK
        NUMBER OF EQUATIONS:  124146
        NUMBER OF RHS:        1
        NUMBER OF FLOPS:      3.486e+10
        SOLVER ELAPSED TIME:  436ms

               CONVERGENCE CHECKS FOR EQUILIBRIUM ITERATION     1


 AVERAGE FORCE                      0.217       TIME AVG. FORCE       0.123    
 LARGEST SCALED RESIDUAL FORCE     -3.315E-07   AT NODE       1036   DOF  3
   INSTANCE: CHD4                                                                            
  CORRESPONDING RESIDUAL FORCE     -3.315E-07
 LARGEST INCREMENT OF DISP.         7.550E-06   AT NODE         11   DOF  2
   INSTANCE: CHD4                                                                            
 LARGEST CORRECTION TO DISP.        4.863E-11   AT NODE        596   DOF  2
   INSTANCE: CHD4                                                                            
          THE FORCE     EQUILIBRIUM EQUATIONS HAVE CONVERGED

 ITERATION SUMMARY FOR THE INCREMENT:   1 TOTAL ITERATIONS, OF WHICH
   0 ARE SEVERE DISCONTINUITY ITERATIONS AND  1 ARE EQUILIBRIUM ITERATIONS.

 TIME INCREMENT COMPLETED   5.00    ,  FRACTION OF STEP COMPLETED  3.000E-02
 STEP TIME COMPLETED        30.0    ,  TOTAL TIME COMPLETED         30.0    


  INCREMENT     7 STARTS. ATTEMPT NUMBER  1, TIME INCREMENT   5.00    
 
	SYMMETRIC NEW DIRECT SPARSE SOLVER RUNNING ON
 	1 HOST x 1 MPI RANK PER HOST x 8 THREADS PER RANK
        NUMBER OF EQUATIONS:  124146
        NUMBER OF RHS:        1
        NUMBER OF FLOPS:      3.486e+10
        SOLVER ELAPSED TIME:  423ms

               CONVERGENCE CHECKS FOR EQUILIBRIUM ITERATION     1


 AVERAGE FORCE                      0.253       TIME AVG. FORCE       0.142    
 LARGEST SCALED RESIDUAL FORCE     -3.869E-07   AT NODE       2285   DOF  3
   INSTANCE: CHD4                                                                            
  CORRESPONDING RESIDUAL FORCE     -3.869E-07
 LARGEST INCREMENT OF DISP.         7.550E-06   AT NODE         11   DOF  2
   INSTANCE: CHD4                                                                            
 LARGEST CORRECTION TO DISP.        4.862E-11   AT NODE        596   DOF  2
   INSTANCE: CHD4                                                                            
          THE FORCE     EQUILIBRIUM EQUATIONS HAVE CONVERGED

 ITERATION SUMMARY FOR THE INCREMENT:   1 TOTAL ITERATIONS, OF WHICH
   0 ARE SEVERE DISCONTINUITY ITERATIONS AND  1 ARE EQUILIBRIUM ITERATIONS.

 TIME INCREMENT COMPLETED   5.00    ,  FRACTION OF STEP COMPLETED  3.500E-02
 STEP TIME COMPLETED        35.0    ,  TOTAL TIME COMPLETED         35.0    


  INCREMENT     8 STARTS. ATTEMPT NUMBER  1, TIME INCREMENT   5.00    
 
	SYMMETRIC NEW DIRECT SPARSE SOLVER RUNNING ON
 	1 HOST x 1 MPI RANK PER HOST x 8 THREADS PER RANK
        NUMBER OF EQUATIONS:  124146
        NUMBER OF RHS:        1
        NUMBER OF FLOPS:      3.486e+10
        SOLVER ELAPSED TIME:  457ms

               CONVERGENCE CHECKS FOR EQUILIBRIUM ITERATION     1


 AVERAGE FORCE                      0.289       TIME AVG. FORCE       0.160    
 LARGEST SCALED RESIDUAL FORCE     -4.424E-07   AT NODE       2285   DOF  3
   INSTANCE: CHD4                                                                            
  CORRESPONDING RESIDUAL FORCE     -4.424E-07
 LARGEST INCREMENT OF DISP.         7.550E-06   AT NODE         11   DOF  2
   INSTANCE: CHD4                                                                            
 LARGEST CORRECTION TO DISP.        4.862E-11   AT NODE        596   DOF  2
   INSTANCE: CHD4                                                                            
          THE FORCE     EQUILIBRIUM EQUATIONS HAVE CONVERGED

 ITERATION SUMMARY FOR THE INCREMENT:   1 TOTAL ITERATIONS, OF WHICH
   0 ARE SEVERE DISCONTINUITY ITERATIONS AND  1 ARE EQUILIBRIUM ITERATIONS.

 TIME INCREMENT COMPLETED   5.00    ,  FRACTION OF STEP COMPLETED  4.000E-02
 STEP TIME COMPLETED        40.0    ,  TOTAL TIME COMPLETED         40.0    


  INCREMENT     9 STARTS. ATTEMPT NUMBER  1, TIME INCREMENT   5.00    
 
	SYMMETRIC NEW DIRECT SPARSE SOLVER RUNNING ON
 	1 HOST x 1 MPI RANK PER HOST x 8 THREADS PER RANK
        NUMBER OF EQUATIONS:  124146
        NUMBER OF RHS:        1
        NUMBER OF FLOPS:      3.486e+10
        SOLVER ELAPSED TIME:  439ms

               CONVERGENCE CHECKS FOR EQUILIBRIUM ITERATION     1


 AVERAGE FORCE                      0.325       TIME AVG. FORCE       0.178    
 LARGEST SCALED RESIDUAL FORCE     -4.974E-07   AT NODE       1036   DOF  3
   INSTANCE: CHD4                                                                            
  CORRESPONDING RESIDUAL FORCE     -4.974E-07
 LARGEST INCREMENT OF DISP.         7.550E-06   AT NODE         11   DOF  2
   INSTANCE: CHD4                                                                            
 LARGEST CORRECTION TO DISP.        4.861E-11   AT NODE        596   DOF  2
   INSTANCE: CHD4                                                                            
          THE FORCE     EQUILIBRIUM EQUATIONS HAVE CONVERGED

 ITERATION SUMMARY FOR THE INCREMENT:   1 TOTAL ITERATIONS, OF WHICH
   0 ARE SEVERE DISCONTINUITY ITERATIONS AND  1 ARE EQUILIBRIUM ITERATIONS.

 TIME INCREMENT COMPLETED   5.00    ,  FRACTION OF STEP COMPLETED  4.500E-02
 STEP TIME COMPLETED        45.0    ,  TOTAL TIME COMPLETED         45.0    


  INCREMENT    10 STARTS. ATTEMPT NUMBER  1, TIME INCREMENT   5.00    
 
	SYMMETRIC NEW DIRECT SPARSE SOLVER RUNNING ON
 	1 HOST x 1 MPI RANK PER HOST x 8 THREADS PER RANK
        NUMBER OF EQUATIONS:  124146
        NUMBER OF RHS:        1
        NUMBER OF FLOPS:      3.486e+10
        SOLVER ELAPSED TIME:  418ms

               CONVERGENCE CHECKS FOR EQUILIBRIUM ITERATION     1


 AVERAGE FORCE                      0.361       TIME AVG. FORCE       0.197    
 LARGEST SCALED RESIDUAL FORCE     -5.525E-07   AT NODE       2285   DOF  3
   INSTANCE: CHD4                                                                            
  CORRESPONDING RESIDUAL FORCE     -5.525E-07
 LARGEST INCREMENT OF DISP.         7.550E-06   AT NODE         11   DOF  2
   INSTANCE: CHD4                                                                            
 LARGEST CORRECTION TO DISP.        4.861E-11   AT NODE        596   DOF  2
   INSTANCE: CHD4                                                                            
          THE FORCE     EQUILIBRIUM EQUATIONS HAVE CONVERGED

 ITERATION SUMMARY FOR THE INCREMENT:   1 TOTAL ITERATIONS, OF WHICH
   0 ARE SEVERE DISCONTINUITY ITERATIONS AND  1 ARE EQUILIBRIUM ITERATIONS.

 TIME INCREMENT COMPLETED   5.00    ,  FRACTION OF STEP COMPLETED  5.000E-02
 STEP TIME COMPLETED        50.0    ,  TOTAL TIME COMPLETED         50.0    


  INCREMENT    11 STARTS. ATTEMPT NUMBER  1, TIME INCREMENT   5.00    
 
	SYMMETRIC NEW DIRECT SPARSE SOLVER RUNNING ON
 	1 HOST x 1 MPI RANK PER HOST x 8 THREADS PER RANK
        NUMBER OF EQUATIONS:  124146
        NUMBER OF RHS:        1
        NUMBER OF FLOPS:      3.486e+10
        SOLVER ELAPSED TIME:  415ms

               CONVERGENCE CHECKS FOR EQUILIBRIUM ITERATION     1


 AVERAGE FORCE                      0.397       TIME AVG. FORCE       0.215    
 LARGEST SCALED RESIDUAL FORCE     -6.076E-07   AT NODE       2285   DOF  3
   INSTANCE: CHD4                                                                            
  CORRESPONDING RESIDUAL FORCE     -6.076E-07
 LARGEST INCREMENT OF DISP.         7.550E-06   AT NODE         11   DOF  2
   INSTANCE: CHD4                                                                            
 LARGEST CORRECTION TO DISP.        4.860E-11   AT NODE        596   DOF  2
   INSTANCE: CHD4                                                                            
          THE FORCE     EQUILIBRIUM EQUATIONS HAVE CONVERGED

 ITERATION SUMMARY FOR THE INCREMENT:   1 TOTAL ITERATIONS, OF WHICH
   0 ARE SEVERE DISCONTINUITY ITERATIONS AND  1 ARE EQUILIBRIUM ITERATIONS.

 TIME INCREMENT COMPLETED   5.00    ,  FRACTION OF STEP COMPLETED  5.500E-02
 STEP TIME COMPLETED        55.0    ,  TOTAL TIME COMPLETED         55.0    


  INCREMENT    12 STARTS. ATTEMPT NUMBER  1, TIME INCREMENT   5.00    
 
	SYMMETRIC NEW DIRECT SPARSE SOLVER RUNNING ON
 	1 HOST x 1 MPI RANK PER HOST x 8 THREADS PER RANK
        NUMBER OF EQUATIONS:  124146
        NUMBER OF RHS:        1
        NUMBER OF FLOPS:      3.486e+10
        SOLVER ELAPSED TIME:  413ms

               CONVERGENCE CHECKS FOR EQUILIBRIUM ITERATION     1


 AVERAGE FORCE                      0.433       TIME AVG. FORCE       0.233    
 LARGEST SCALED RESIDUAL FORCE     -6.625E-07   AT NODE       2285   DOF  3
   INSTANCE: CHD4                                                                            
  CORRESPONDING RESIDUAL FORCE     -6.625E-07
 LARGEST INCREMENT OF DISP.         7.550E-06   AT NODE         11   DOF  2
   INSTANCE: CHD4                                                                            
 LARGEST CORRECTION TO DISP.        4.859E-11   AT NODE        596   DOF  2
   INSTANCE: CHD4                                                                            
          THE FORCE     EQUILIBRIUM EQUATIONS HAVE CONVERGED

 ITERATION SUMMARY FOR THE INCREMENT:   1 TOTAL ITERATIONS, OF WHICH
   0 ARE SEVERE DISCONTINUITY ITERATIONS AND  1 ARE EQUILIBRIUM ITERATIONS.

 TIME INCREMENT COMPLETED   5.00    ,  FRACTION OF STEP COMPLETED  6.000E-02
 STEP TIME COMPLETED        60.0    ,  TOTAL TIME COMPLETED         60.0    


  INCREMENT    13 STARTS. ATTEMPT NUMBER  1, TIME INCREMENT   5.00    
 
	SYMMETRIC NEW DIRECT SPARSE SOLVER RUNNING ON
 	1 HOST x 1 MPI RANK PER HOST x 8 THREADS PER RANK
        NUMBER OF EQUATIONS:  124146
        NUMBER OF RHS:        1
        NUMBER OF FLOPS:      3.486e+10
        SOLVER ELAPSED TIME:  430ms

               CONVERGENCE CHECKS FOR EQUILIBRIUM ITERATION     1


 AVERAGE FORCE                      0.469       TIME AVG. FORCE       0.251    
 LARGEST SCALED RESIDUAL FORCE     -7.178E-07   AT NODE       1036   DOF  3
   INSTANCE: CHD4                                                                            
  CORRESPONDING RESIDUAL FORCE     -7.178E-07
 LARGEST INCREMENT OF DISP.         7.550E-06   AT NODE         11   DOF  2
   INSTANCE: CHD4                                                                            
 LARGEST CORRECTION TO DISP.        4.859E-11   AT NODE        596   DOF  2
   INSTANCE: CHD4                                                                            
          THE FORCE     EQUILIBRIUM EQUATIONS HAVE CONVERGED

 ITERATION SUMMARY FOR THE INCREMENT:   1 TOTAL ITERATIONS, OF WHICH
   0 ARE SEVERE DISCONTINUITY ITERATIONS AND  1 ARE EQUILIBRIUM ITERATIONS.

 TIME INCREMENT COMPLETED   5.00    ,  FRACTION OF STEP COMPLETED  6.500E-02
 STEP TIME COMPLETED        65.0    ,  TOTAL TIME COMPLETED         65.0    


  INCREMENT    14 STARTS. ATTEMPT NUMBER  1, TIME INCREMENT   5.00    
 
	SYMMETRIC NEW DIRECT SPARSE SOLVER RUNNING ON
 	1 HOST x 1 MPI RANK PER HOST x 8 THREADS PER RANK
        NUMBER OF EQUATIONS:  124146
        NUMBER OF RHS:        1
        NUMBER OF FLOPS:      3.486e+10
        SOLVER ELAPSED TIME:  424ms

               CONVERGENCE CHECKS FOR EQUILIBRIUM ITERATION     1


 AVERAGE FORCE                      0.505       TIME AVG. FORCE       0.269    
 LARGEST SCALED RESIDUAL FORCE     -7.726E-07   AT NODE       2285   DOF  3
   INSTANCE: CHD4                                                                            
  CORRESPONDING RESIDUAL FORCE     -7.726E-07
 LARGEST INCREMENT OF DISP.         7.550E-06   AT NODE         11   DOF  2
   INSTANCE: CHD4                                                                            
 LARGEST CORRECTION TO DISP.        4.858E-11   AT NODE        596   DOF  2
   INSTANCE: CHD4                                                                            
          THE FORCE     EQUILIBRIUM EQUATIONS HAVE CONVERGED

 ITERATION SUMMARY FOR THE INCREMENT:   1 TOTAL ITERATIONS, OF WHICH
   0 ARE SEVERE DISCONTINUITY ITERATIONS AND  1 ARE EQUILIBRIUM ITERATIONS.

 TIME INCREMENT COMPLETED   5.00    ,  FRACTION OF STEP COMPLETED  7.000E-02
 STEP TIME COMPLETED        70.0    ,  TOTAL TIME COMPLETED         70.0    


  INCREMENT    15 STARTS. ATTEMPT NUMBER  1, TIME INCREMENT   5.00    
 
	SYMMETRIC NEW DIRECT SPARSE SOLVER RUNNING ON
 	1 HOST x 1 MPI RANK PER HOST x 8 THREADS PER RANK
        NUMBER OF EQUATIONS:  124146
        NUMBER OF RHS:        1
        NUMBER OF FLOPS:      3.486e+10
        SOLVER ELAPSED TIME:  412ms

               CONVERGENCE CHECKS FOR EQUILIBRIUM ITERATION     1


 AVERAGE FORCE                      0.542       TIME AVG. FORCE       0.288    
 LARGEST SCALED RESIDUAL FORCE     -8.279E-07   AT NODE       2285   DOF  3
   INSTANCE: CHD4                                                                            
  CORRESPONDING RESIDUAL FORCE     -8.279E-07
 LARGEST INCREMENT OF DISP.         7.550E-06   AT NODE         11   DOF  2
   INSTANCE: CHD4                                                                            
 LARGEST CORRECTION TO DISP.        4.858E-11   AT NODE        596   DOF  2
   INSTANCE: CHD4                                                                            
          THE FORCE     EQUILIBRIUM EQUATIONS HAVE CONVERGED

 ITERATION SUMMARY FOR THE INCREMENT:   1 TOTAL ITERATIONS, OF WHICH
   0 ARE SEVERE DISCONTINUITY ITERATIONS AND  1 ARE EQUILIBRIUM ITERATIONS.

 TIME INCREMENT COMPLETED   5.00    ,  FRACTION OF STEP COMPLETED  7.500E-02
 STEP TIME COMPLETED        75.0    ,  TOTAL TIME COMPLETED         75.0    


  INCREMENT    16 STARTS. ATTEMPT NUMBER  1, TIME INCREMENT   5.00    
 
	SYMMETRIC NEW DIRECT SPARSE SOLVER RUNNING ON
 	1 HOST x 1 MPI RANK PER HOST x 8 THREADS PER RANK
        NUMBER OF EQUATIONS:  124146
        NUMBER OF RHS:        1
        NUMBER OF FLOPS:      3.486e+10
        SOLVER ELAPSED TIME:  422ms

               CONVERGENCE CHECKS FOR EQUILIBRIUM ITERATION     1


 AVERAGE FORCE                      0.578       TIME AVG. FORCE       0.306    
 LARGEST SCALED RESIDUAL FORCE     -8.829E-07   AT NODE       2285   DOF  3
   INSTANCE: CHD4                                                                            
  CORRESPONDING RESIDUAL FORCE     -8.829E-07
 LARGEST INCREMENT OF DISP.         7.550E-06   AT NODE         11   DOF  2
   INSTANCE: CHD4                                                                            
 LARGEST CORRECTION TO DISP.        4.857E-11   AT NODE        596   DOF  2
   INSTANCE: CHD4                                                                            
          THE FORCE     EQUILIBRIUM EQUATIONS HAVE CONVERGED

 ITERATION SUMMARY FOR THE INCREMENT:   1 TOTAL ITERATIONS, OF WHICH
   0 ARE SEVERE DISCONTINUITY ITERATIONS AND  1 ARE EQUILIBRIUM ITERATIONS.

 TIME INCREMENT COMPLETED   5.00    ,  FRACTION OF STEP COMPLETED  8.000E-02
 STEP TIME COMPLETED        80.0    ,  TOTAL TIME COMPLETED         80.0    


  INCREMENT    17 STARTS. ATTEMPT NUMBER  1, TIME INCREMENT   5.00    
 
	SYMMETRIC NEW DIRECT SPARSE SOLVER RUNNING ON
 	1 HOST x 1 MPI RANK PER HOST x 8 THREADS PER RANK
        NUMBER OF EQUATIONS:  124146
        NUMBER OF RHS:        1
        NUMBER OF FLOPS:      3.486e+10
        SOLVER ELAPSED TIME:  416ms

               CONVERGENCE CHECKS FOR EQUILIBRIUM ITERATION     1


 AVERAGE FORCE                      0.614       TIME AVG. FORCE       0.324    
 LARGEST SCALED RESIDUAL FORCE     -9.381E-07   AT NODE       2285   DOF  3
   INSTANCE: CHD4                                                                            
  CORRESPONDING RESIDUAL FORCE     -9.381E-07
 LARGEST INCREMENT OF DISP.         7.550E-06   AT NODE         11   DOF  2
   INSTANCE: CHD4                                                                            
 LARGEST CORRECTION TO DISP.        4.857E-11   AT NODE        596   DOF  2
   INSTANCE: CHD4                                                                            
          THE FORCE     EQUILIBRIUM EQUATIONS HAVE CONVERGED

 ITERATION SUMMARY FOR THE INCREMENT:   1 TOTAL ITERATIONS, OF WHICH
   0 ARE SEVERE DISCONTINUITY ITERATIONS AND  1 ARE EQUILIBRIUM ITERATIONS.

 TIME INCREMENT COMPLETED   5.00    ,  FRACTION OF STEP COMPLETED  8.500E-02
 STEP TIME COMPLETED        85.0    ,  TOTAL TIME COMPLETED         85.0    


  INCREMENT    18 STARTS. ATTEMPT NUMBER  1, TIME INCREMENT   5.00    
 
	SYMMETRIC NEW DIRECT SPARSE SOLVER RUNNING ON
 	1 HOST x 1 MPI RANK PER HOST x 8 THREADS PER RANK
        NUMBER OF EQUATIONS:  124146
        NUMBER OF RHS:        1
        NUMBER OF FLOPS:      3.486e+10
        SOLVER ELAPSED TIME:  409ms

               CONVERGENCE CHECKS FOR EQUILIBRIUM ITERATION     1


 AVERAGE FORCE                      0.650       TIME AVG. FORCE       0.342    
 LARGEST SCALED RESIDUAL FORCE     -9.930E-07   AT NODE       2285   DOF  3
   INSTANCE: CHD4                                                                            
  CORRESPONDING RESIDUAL FORCE     -9.930E-07
 LARGEST INCREMENT OF DISP.         7.550E-06   AT NODE         11   DOF  2
   INSTANCE: CHD4                                                                            
 LARGEST CORRECTION TO DISP.        4.856E-11   AT NODE        596   DOF  2
   INSTANCE: CHD4                                                                            
          THE FORCE     EQUILIBRIUM EQUATIONS HAVE CONVERGED

 ITERATION SUMMARY FOR THE INCREMENT:   1 TOTAL ITERATIONS, OF WHICH
   0 ARE SEVERE DISCONTINUITY ITERATIONS AND  1 ARE EQUILIBRIUM ITERATIONS.

 TIME INCREMENT COMPLETED   5.00    ,  FRACTION OF STEP COMPLETED  9.000E-02
 STEP TIME COMPLETED        90.0    ,  TOTAL TIME COMPLETED         90.0    


  INCREMENT    19 STARTS. ATTEMPT NUMBER  1, TIME INCREMENT   5.00    
 
	SYMMETRIC NEW DIRECT SPARSE SOLVER RUNNING ON
 	1 HOST x 1 MPI RANK PER HOST x 8 THREADS PER RANK
        NUMBER OF EQUATIONS:  124146
        NUMBER OF RHS:        1
        NUMBER OF FLOPS:      3.486e+10
        SOLVER ELAPSED TIME:  406ms

               CONVERGENCE CHECKS FOR EQUILIBRIUM ITERATION     1


 AVERAGE FORCE                      0.686       TIME AVG. FORCE       0.360    
 LARGEST SCALED RESIDUAL FORCE     -1.048E-06   AT NODE       2285   DOF  3
   INSTANCE: CHD4                                                                            
  CORRESPONDING RESIDUAL FORCE     -1.048E-06
 LARGEST INCREMENT OF DISP.         7.550E-06   AT NODE         11   DOF  2
   INSTANCE: CHD4                                                                            
 LARGEST CORRECTION TO DISP.        4.856E-11   AT NODE        596   DOF  2
   INSTANCE: CHD4                                                                            
          THE FORCE     EQUILIBRIUM EQUATIONS HAVE CONVERGED

 ITERATION SUMMARY FOR THE INCREMENT:   1 TOTAL ITERATIONS, OF WHICH
   0 ARE SEVERE DISCONTINUITY ITERATIONS AND  1 ARE EQUILIBRIUM ITERATIONS.

 TIME INCREMENT COMPLETED   5.00    ,  FRACTION OF STEP COMPLETED  9.500E-02
 STEP TIME COMPLETED        95.0    ,  TOTAL TIME COMPLETED         95.0    


  INCREMENT    20 STARTS. ATTEMPT NUMBER  1, TIME INCREMENT   5.00    
 
	SYMMETRIC NEW DIRECT SPARSE SOLVER RUNNING ON
 	1 HOST x 1 MPI RANK PER HOST x 8 THREADS PER RANK
        NUMBER OF EQUATIONS:  124146
        NUMBER OF RHS:        1
        NUMBER OF FLOPS:      3.486e+10
        SOLVER ELAPSED TIME:  412ms

               CONVERGENCE CHECKS FOR EQUILIBRIUM ITERATION     1


 AVERAGE FORCE                      0.722       TIME AVG. FORCE       0.378    
 LARGEST SCALED RESIDUAL FORCE     -1.103E-06   AT NODE       2285   DOF  3
   INSTANCE: CHD4                                                                            
  CORRESPONDING RESIDUAL FORCE     -1.103E-06
 LARGEST INCREMENT OF DISP.         7.550E-06   AT NODE         11   DOF  2
   INSTANCE: CHD4                                                                            
 LARGEST CORRECTION TO DISP.        4.855E-11   AT NODE        596   DOF  2
   INSTANCE: CHD4                                                                            
          THE FORCE     EQUILIBRIUM EQUATIONS HAVE CONVERGED

 ITERATION SUMMARY FOR THE INCREMENT:   1 TOTAL ITERATIONS, OF WHICH
   0 ARE SEVERE DISCONTINUITY ITERATIONS AND  1 ARE EQUILIBRIUM ITERATIONS.

 TIME INCREMENT COMPLETED   5.00    ,  FRACTION OF STEP COMPLETED  0.100    
 STEP TIME COMPLETED        100.    ,  TOTAL TIME COMPLETED         100.    


  INCREMENT    21 STARTS. ATTEMPT NUMBER  1, TIME INCREMENT   5.00    
 
	SYMMETRIC NEW DIRECT SPARSE SOLVER RUNNING ON
 	1 HOST x 1 MPI RANK PER HOST x 8 THREADS PER RANK
        NUMBER OF EQUATIONS:  124146
        NUMBER OF RHS:        1
        NUMBER OF FLOPS:      3.486e+10
        SOLVER ELAPSED TIME:  406ms

               CONVERGENCE CHECKS FOR EQUILIBRIUM ITERATION     1


 AVERAGE FORCE                      0.758       TIME AVG. FORCE       0.396    
 LARGEST SCALED RESIDUAL FORCE     -1.158E-06   AT NODE       2285   DOF  3
   INSTANCE: CHD4                                                                            
  CORRESPONDING RESIDUAL FORCE     -1.158E-06
 LARGEST INCREMENT OF DISP.         7.550E-06   AT NODE         11   DOF  2
   INSTANCE: CHD4                                                                            
 LARGEST CORRECTION TO DISP.        4.854E-11   AT NODE        596   DOF  2
   INSTANCE: CHD4                                                                            
          THE FORCE     EQUILIBRIUM EQUATIONS HAVE CONVERGED

 ITERATION SUMMARY FOR THE INCREMENT:   1 TOTAL ITERATIONS, OF WHICH
   0 ARE SEVERE DISCONTINUITY ITERATIONS AND  1 ARE EQUILIBRIUM ITERATIONS.

 TIME INCREMENT COMPLETED   5.00    ,  FRACTION OF STEP COMPLETED  0.105    
 STEP TIME COMPLETED        105.    ,  TOTAL TIME COMPLETED         105.    


  INCREMENT    22 STARTS. ATTEMPT NUMBER  1, TIME INCREMENT   5.00    
 
	SYMMETRIC NEW DIRECT SPARSE SOLVER RUNNING ON
 	1 HOST x 1 MPI RANK PER HOST x 8 THREADS PER RANK
        NUMBER OF EQUATIONS:  124146
        NUMBER OF RHS:        1
        NUMBER OF FLOPS:      3.486e+10
        SOLVER ELAPSED TIME:  384ms

               CONVERGENCE CHECKS FOR EQUILIBRIUM ITERATION     1


 AVERAGE FORCE                      0.794       TIME AVG. FORCE       0.414    
 LARGEST SCALED RESIDUAL FORCE     -1.213E-06   AT NODE       2285   DOF  3
   INSTANCE: CHD4                                                                            
  CORRESPONDING RESIDUAL FORCE     -1.213E-06
 LARGEST INCREMENT OF DISP.         7.550E-06   AT NODE         11   DOF  2
   INSTANCE: CHD4                                                                            
 LARGEST CORRECTION TO DISP.        4.854E-11   AT NODE        596   DOF  2
   INSTANCE: CHD4                                                                            
          THE FORCE     EQUILIBRIUM EQUATIONS HAVE CONVERGED

 ITERATION SUMMARY FOR THE INCREMENT:   1 TOTAL ITERATIONS, OF WHICH
   0 ARE SEVERE DISCONTINUITY ITERATIONS AND  1 ARE EQUILIBRIUM ITERATIONS.

 TIME INCREMENT COMPLETED   5.00    ,  FRACTION OF STEP COMPLETED  0.110    
 STEP TIME COMPLETED        110.    ,  TOTAL TIME COMPLETED         110.    


  INCREMENT    23 STARTS. ATTEMPT NUMBER  1, TIME INCREMENT   5.00    
 
	SYMMETRIC NEW DIRECT SPARSE SOLVER RUNNING ON
 	1 HOST x 1 MPI RANK PER HOST x 8 THREADS PER RANK
        NUMBER OF EQUATIONS:  124146
        NUMBER OF RHS:        1
        NUMBER OF FLOPS:      3.486e+10
        SOLVER ELAPSED TIME:  406ms

               CONVERGENCE CHECKS FOR EQUILIBRIUM ITERATION     1


 AVERAGE FORCE                      0.830       TIME AVG. FORCE       0.432    
 LARGEST SCALED RESIDUAL FORCE     -1.268E-06   AT NODE       2285   DOF  3
   INSTANCE: CHD4                                                                            
  CORRESPONDING RESIDUAL FORCE     -1.268E-06
 LARGEST INCREMENT OF DISP.         7.550E-06   AT NODE         11   DOF  2
   INSTANCE: CHD4                                                                            
 LARGEST CORRECTION TO DISP.        4.853E-11   AT NODE        596   DOF  2
   INSTANCE: CHD4                                                                            
          THE FORCE     EQUILIBRIUM EQUATIONS HAVE CONVERGED

 ITERATION SUMMARY FOR THE INCREMENT:   1 TOTAL ITERATIONS, OF WHICH
   0 ARE SEVERE DISCONTINUITY ITERATIONS AND  1 ARE EQUILIBRIUM ITERATIONS.

 TIME INCREMENT COMPLETED   5.00    ,  FRACTION OF STEP COMPLETED  0.115    
 STEP TIME COMPLETED        115.    ,  TOTAL TIME COMPLETED         115.    


  INCREMENT    24 STARTS. ATTEMPT NUMBER  1, TIME INCREMENT   5.00    
 
	SYMMETRIC NEW DIRECT SPARSE SOLVER RUNNING ON
 	1 HOST x 1 MPI RANK PER HOST x 8 THREADS PER RANK
        NUMBER OF EQUATIONS:  124146
        NUMBER OF RHS:        1
        NUMBER OF FLOPS:      3.486e+10
        SOLVER ELAPSED TIME:  406ms

               CONVERGENCE CHECKS FOR EQUILIBRIUM ITERATION     1


 AVERAGE FORCE                      0.866       TIME AVG. FORCE       0.450    
 LARGEST SCALED RESIDUAL FORCE     -1.323E-06   AT NODE       1036   DOF  3
   INSTANCE: CHD4                                                                            
  CORRESPONDING RESIDUAL FORCE     -1.323E-06
 LARGEST INCREMENT OF DISP.         7.550E-06   AT NODE         11   DOF  2
   INSTANCE: CHD4                                                                            
 LARGEST CORRECTION TO DISP.        4.853E-11   AT NODE        596   DOF  2
   INSTANCE: CHD4                                                                            
          THE FORCE     EQUILIBRIUM EQUATIONS HAVE CONVERGED

 ITERATION SUMMARY FOR THE INCREMENT:   1 TOTAL ITERATIONS, OF WHICH
   0 ARE SEVERE DISCONTINUITY ITERATIONS AND  1 ARE EQUILIBRIUM ITERATIONS.

 TIME INCREMENT COMPLETED   5.00    ,  FRACTION OF STEP COMPLETED  0.120    
 STEP TIME COMPLETED        120.    ,  TOTAL TIME COMPLETED         120.    


  INCREMENT    25 STARTS. ATTEMPT NUMBER  1, TIME INCREMENT   5.00    
 
	SYMMETRIC NEW DIRECT SPARSE SOLVER RUNNING ON
 	1 HOST x 1 MPI RANK PER HOST x 8 THREADS PER RANK
        NUMBER OF EQUATIONS:  124146
        NUMBER OF RHS:        1
        NUMBER OF FLOPS:      3.486e+10
        SOLVER ELAPSED TIME:  403ms

               CONVERGENCE CHECKS FOR EQUILIBRIUM ITERATION     1


 AVERAGE FORCE                      0.902       TIME AVG. FORCE       0.468    
 LARGEST SCALED RESIDUAL FORCE     -1.378E-06   AT NODE       2285   DOF  3
   INSTANCE: CHD4                                                                            
  CORRESPONDING RESIDUAL FORCE     -1.378E-06
 LARGEST INCREMENT OF DISP.         7.550E-06   AT NODE         11   DOF  2
   INSTANCE: CHD4                                                                            
 LARGEST CORRECTION TO DISP.        4.852E-11   AT NODE        596   DOF  2
   INSTANCE: CHD4                                                                            
          THE FORCE     EQUILIBRIUM EQUATIONS HAVE CONVERGED

 ITERATION SUMMARY FOR THE INCREMENT:   1 TOTAL ITERATIONS, OF WHICH
   0 ARE SEVERE DISCONTINUITY ITERATIONS AND  1 ARE EQUILIBRIUM ITERATIONS.

 TIME INCREMENT COMPLETED   5.00    ,  FRACTION OF STEP COMPLETED  0.125    
 STEP TIME COMPLETED        125.    ,  TOTAL TIME COMPLETED         125.    


  INCREMENT    26 STARTS. ATTEMPT NUMBER  1, TIME INCREMENT   5.00    
 
	SYMMETRIC NEW DIRECT SPARSE SOLVER RUNNING ON
 	1 HOST x 1 MPI RANK PER HOST x 8 THREADS PER RANK
        NUMBER OF EQUATIONS:  124146
        NUMBER OF RHS:        1
        NUMBER OF FLOPS:      3.486e+10
        SOLVER ELAPSED TIME:  377ms

               CONVERGENCE CHECKS FOR EQUILIBRIUM ITERATION     1


 AVERAGE FORCE                      0.938       TIME AVG. FORCE       0.487    
 LARGEST SCALED RESIDUAL FORCE     -1.433E-06   AT NODE       2285   DOF  3
   INSTANCE: CHD4                                                                            
  CORRESPONDING RESIDUAL FORCE     -1.433E-06
 LARGEST INCREMENT OF DISP.         7.550E-06   AT NODE         11   DOF  2
   INSTANCE: CHD4                                                                            
 LARGEST CORRECTION TO DISP.        4.852E-11   AT NODE        596   DOF  2
   INSTANCE: CHD4                                                                            
          THE FORCE     EQUILIBRIUM EQUATIONS HAVE CONVERGED

 ITERATION SUMMARY FOR THE INCREMENT:   1 TOTAL ITERATIONS, OF WHICH
   0 ARE SEVERE DISCONTINUITY ITERATIONS AND  1 ARE EQUILIBRIUM ITERATIONS.

 TIME INCREMENT COMPLETED   5.00    ,  FRACTION OF STEP COMPLETED  0.130    
 STEP TIME COMPLETED        130.    ,  TOTAL TIME COMPLETED         130.    


  INCREMENT    27 STARTS. ATTEMPT NUMBER  1, TIME INCREMENT   5.00    
 
	SYMMETRIC NEW DIRECT SPARSE SOLVER RUNNING ON
 	1 HOST x 1 MPI RANK PER HOST x 8 THREADS PER RANK
        NUMBER OF EQUATIONS:  124146
        NUMBER OF RHS:        1
        NUMBER OF FLOPS:      3.486e+10
        SOLVER ELAPSED TIME:  403ms

               CONVERGENCE CHECKS FOR EQUILIBRIUM ITERATION     1


 AVERAGE FORCE                      0.974       TIME AVG. FORCE       0.505    
 LARGEST SCALED RESIDUAL FORCE     -1.487E-06   AT NODE       2285   DOF  3
   INSTANCE: CHD4                                                                            
  CORRESPONDING RESIDUAL FORCE     -1.487E-06
 LARGEST INCREMENT OF DISP.         7.550E-06   AT NODE         11   DOF  2
   INSTANCE: CHD4                                                                            
 LARGEST CORRECTION TO DISP.        4.851E-11   AT NODE        596   DOF  2
   INSTANCE: CHD4                                                                            
          THE FORCE     EQUILIBRIUM EQUATIONS HAVE CONVERGED

 ITERATION SUMMARY FOR THE INCREMENT:   1 TOTAL ITERATIONS, OF WHICH
   0 ARE SEVERE DISCONTINUITY ITERATIONS AND  1 ARE EQUILIBRIUM ITERATIONS.

 TIME INCREMENT COMPLETED   5.00    ,  FRACTION OF STEP COMPLETED  0.135    
 STEP TIME COMPLETED        135.    ,  TOTAL TIME COMPLETED         135.    


  INCREMENT    28 STARTS. ATTEMPT NUMBER  1, TIME INCREMENT   5.00    
 
	SYMMETRIC NEW DIRECT SPARSE SOLVER RUNNING ON
 	1 HOST x 1 MPI RANK PER HOST x 8 THREADS PER RANK
        NUMBER OF EQUATIONS:  124146
        NUMBER OF RHS:        1
        NUMBER OF FLOPS:      3.486e+10
        SOLVER ELAPSED TIME:  401ms

               CONVERGENCE CHECKS FOR EQUILIBRIUM ITERATION     1


 AVERAGE FORCE                       1.01       TIME AVG. FORCE       0.523    
 LARGEST SCALED RESIDUAL FORCE     -1.543E-06   AT NODE       2285   DOF  3
   INSTANCE: CHD4                                                                            
  CORRESPONDING RESIDUAL FORCE     -1.543E-06
 LARGEST INCREMENT OF DISP.         7.550E-06   AT NODE         11   DOF  2
   INSTANCE: CHD4                                                                            
 LARGEST CORRECTION TO DISP.        4.850E-11   AT NODE        596   DOF  2
   INSTANCE: CHD4                                                                            
          THE FORCE     EQUILIBRIUM EQUATIONS HAVE CONVERGED

 ITERATION SUMMARY FOR THE INCREMENT:   1 TOTAL ITERATIONS, OF WHICH
   0 ARE SEVERE DISCONTINUITY ITERATIONS AND  1 ARE EQUILIBRIUM ITERATIONS.

 TIME INCREMENT COMPLETED   5.00    ,  FRACTION OF STEP COMPLETED  0.140    
 STEP TIME COMPLETED        140.    ,  TOTAL TIME COMPLETED         140.    


  INCREMENT    29 STARTS. ATTEMPT NUMBER  1, TIME INCREMENT   5.00    
 
	SYMMETRIC NEW DIRECT SPARSE SOLVER RUNNING ON
 	1 HOST x 1 MPI RANK PER HOST x 8 THREADS PER RANK
        NUMBER OF EQUATIONS:  124146
        NUMBER OF RHS:        1
        NUMBER OF FLOPS:      3.486e+10
        SOLVER ELAPSED TIME:  402ms

               CONVERGENCE CHECKS FOR EQUILIBRIUM ITERATION     1


 AVERAGE FORCE                       1.05       TIME AVG. FORCE       0.541    
 LARGEST SCALED RESIDUAL FORCE     -1.597E-06   AT NODE       2285   DOF  3
   INSTANCE: CHD4                                                                            
  CORRESPONDING RESIDUAL FORCE     -1.597E-06
 LARGEST INCREMENT OF DISP.         7.550E-06   AT NODE         11   DOF  2
   INSTANCE: CHD4                                                                            
 LARGEST CORRECTION TO DISP.        4.850E-11   AT NODE        596   DOF  2
   INSTANCE: CHD4                                                                            
          THE FORCE     EQUILIBRIUM EQUATIONS HAVE CONVERGED

 ITERATION SUMMARY FOR THE INCREMENT:   1 TOTAL ITERATIONS, OF WHICH
   0 ARE SEVERE DISCONTINUITY ITERATIONS AND  1 ARE EQUILIBRIUM ITERATIONS.

 TIME INCREMENT COMPLETED   5.00    ,  FRACTION OF STEP COMPLETED  0.145    
 STEP TIME COMPLETED        145.    ,  TOTAL TIME COMPLETED         145.    


  INCREMENT    30 STARTS. ATTEMPT NUMBER  1, TIME INCREMENT   5.00    
 
	SYMMETRIC NEW DIRECT SPARSE SOLVER RUNNING ON
 	1 HOST x 1 MPI RANK PER HOST x 8 THREADS PER RANK
        NUMBER OF EQUATIONS:  124146
        NUMBER OF RHS:        1
        NUMBER OF FLOPS:      3.486e+10
        SOLVER ELAPSED TIME:  410ms

               CONVERGENCE CHECKS FOR EQUILIBRIUM ITERATION     1


 AVERAGE FORCE                       1.08       TIME AVG. FORCE       0.559    
 LARGEST SCALED RESIDUAL FORCE     -1.652E-06   AT NODE       2285   DOF  3
   INSTANCE: CHD4                                                                            
  CORRESPONDING RESIDUAL FORCE     -1.652E-06
 LARGEST INCREMENT OF DISP.         7.550E-06   AT NODE         11   DOF  2
   INSTANCE: CHD4                                                                            
 LARGEST CORRECTION TO DISP.        4.849E-11   AT NODE        596   DOF  2
   INSTANCE: CHD4                                                                            
          THE FORCE     EQUILIBRIUM EQUATIONS HAVE CONVERGED

 ITERATION SUMMARY FOR THE INCREMENT:   1 TOTAL ITERATIONS, OF WHICH
   0 ARE SEVERE DISCONTINUITY ITERATIONS AND  1 ARE EQUILIBRIUM ITERATIONS.

 TIME INCREMENT COMPLETED   5.00    ,  FRACTION OF STEP COMPLETED  0.150    
 STEP TIME COMPLETED        150.    ,  TOTAL TIME COMPLETED         150.    


  INCREMENT    31 STARTS. ATTEMPT NUMBER  1, TIME INCREMENT   5.00    
 
	SYMMETRIC NEW DIRECT SPARSE SOLVER RUNNING ON
 	1 HOST x 1 MPI RANK PER HOST x 8 THREADS PER RANK
        NUMBER OF EQUATIONS:  124146
        NUMBER OF RHS:        1
        NUMBER OF FLOPS:      3.486e+10
        SOLVER ELAPSED TIME:  402ms

               CONVERGENCE CHECKS FOR EQUILIBRIUM ITERATION     1


 AVERAGE FORCE                       1.12       TIME AVG. FORCE       0.577    
 LARGEST SCALED RESIDUAL FORCE     -1.707E-06   AT NODE       2285   DOF  3
   INSTANCE: CHD4                                                                            
  CORRESPONDING RESIDUAL FORCE     -1.707E-06
 LARGEST INCREMENT OF DISP.         7.550E-06   AT NODE         11   DOF  2
   INSTANCE: CHD4                                                                            
 LARGEST CORRECTION TO DISP.        4.849E-11   AT NODE        596   DOF  2
   INSTANCE: CHD4                                                                            
          THE FORCE     EQUILIBRIUM EQUATIONS HAVE CONVERGED

 ITERATION SUMMARY FOR THE INCREMENT:   1 TOTAL ITERATIONS, OF WHICH
   0 ARE SEVERE DISCONTINUITY ITERATIONS AND  1 ARE EQUILIBRIUM ITERATIONS.

 TIME INCREMENT COMPLETED   5.00    ,  FRACTION OF STEP COMPLETED  0.155    
 STEP TIME COMPLETED        155.    ,  TOTAL TIME COMPLETED         155.    


  INCREMENT    32 STARTS. ATTEMPT NUMBER  1, TIME INCREMENT   5.00    
 
	SYMMETRIC NEW DIRECT SPARSE SOLVER RUNNING ON
 	1 HOST x 1 MPI RANK PER HOST x 8 THREADS PER RANK
        NUMBER OF EQUATIONS:  124146
        NUMBER OF RHS:        1
        NUMBER OF FLOPS:      3.486e+10
        SOLVER ELAPSED TIME:  411ms

               CONVERGENCE CHECKS FOR EQUILIBRIUM ITERATION     1


 AVERAGE FORCE                       1.15       TIME AVG. FORCE       0.595    
 LARGEST SCALED RESIDUAL FORCE     -1.762E-06   AT NODE       2285   DOF  3
   INSTANCE: CHD4                                                                            
  CORRESPONDING RESIDUAL FORCE     -1.762E-06
 LARGEST INCREMENT OF DISP.         7.550E-06   AT NODE         11   DOF  2
   INSTANCE: CHD4                                                                            
 LARGEST CORRECTION TO DISP.        4.848E-11   AT NODE        596   DOF  2
   INSTANCE: CHD4                                                                            
          THE FORCE     EQUILIBRIUM EQUATIONS HAVE CONVERGED

 ITERATION SUMMARY FOR THE INCREMENT:   1 TOTAL ITERATIONS, OF WHICH
   0 ARE SEVERE DISCONTINUITY ITERATIONS AND  1 ARE EQUILIBRIUM ITERATIONS.

 TIME INCREMENT COMPLETED   5.00    ,  FRACTION OF STEP COMPLETED  0.160    
 STEP TIME COMPLETED        160.    ,  TOTAL TIME COMPLETED         160.    


  INCREMENT    33 STARTS. ATTEMPT NUMBER  1, TIME INCREMENT   5.00    
 
	SYMMETRIC NEW DIRECT SPARSE SOLVER RUNNING ON
 	1 HOST x 1 MPI RANK PER HOST x 8 THREADS PER RANK
        NUMBER OF EQUATIONS:  124146
        NUMBER OF RHS:        1
        NUMBER OF FLOPS:      3.486e+10
        SOLVER ELAPSED TIME:  409ms

               CONVERGENCE CHECKS FOR EQUILIBRIUM ITERATION     1


 AVERAGE FORCE                       1.19       TIME AVG. FORCE       0.613    
 LARGEST SCALED RESIDUAL FORCE     -1.817E-06   AT NODE       2285   DOF  3
   INSTANCE: CHD4                                                                            
  CORRESPONDING RESIDUAL FORCE     -1.817E-06
 LARGEST INCREMENT OF DISP.         7.550E-06   AT NODE         11   DOF  2
   INSTANCE: CHD4                                                                            
 LARGEST CORRECTION TO DISP.        4.848E-11   AT NODE        596   DOF  2
   INSTANCE: CHD4                                                                            
          THE FORCE     EQUILIBRIUM EQUATIONS HAVE CONVERGED

 ITERATION SUMMARY FOR THE INCREMENT:   1 TOTAL ITERATIONS, OF WHICH
   0 ARE SEVERE DISCONTINUITY ITERATIONS AND  1 ARE EQUILIBRIUM ITERATIONS.

 TIME INCREMENT COMPLETED   5.00    ,  FRACTION OF STEP COMPLETED  0.165    
 STEP TIME COMPLETED        165.    ,  TOTAL TIME COMPLETED         165.    


  INCREMENT    34 STARTS. ATTEMPT NUMBER  1, TIME INCREMENT   5.00    
 
	SYMMETRIC NEW DIRECT SPARSE SOLVER RUNNING ON
 	1 HOST x 1 MPI RANK PER HOST x 8 THREADS PER RANK
        NUMBER OF EQUATIONS:  124146
        NUMBER OF RHS:        1
        NUMBER OF FLOPS:      3.486e+10
        SOLVER ELAPSED TIME:  402ms

               CONVERGENCE CHECKS FOR EQUILIBRIUM ITERATION     1


 AVERAGE FORCE                       1.23       TIME AVG. FORCE       0.631    
 LARGEST SCALED RESIDUAL FORCE     -1.872E-06   AT NODE       2285   DOF  3
   INSTANCE: CHD4                                                                            
  CORRESPONDING RESIDUAL FORCE     -1.872E-06
 LARGEST INCREMENT OF DISP.         7.550E-06   AT NODE         11   DOF  2
   INSTANCE: CHD4                                                                            
 LARGEST CORRECTION TO DISP.        4.847E-11   AT NODE        596   DOF  2
   INSTANCE: CHD4                                                                            
          THE FORCE     EQUILIBRIUM EQUATIONS HAVE CONVERGED

 ITERATION SUMMARY FOR THE INCREMENT:   1 TOTAL ITERATIONS, OF WHICH
   0 ARE SEVERE DISCONTINUITY ITERATIONS AND  1 ARE EQUILIBRIUM ITERATIONS.

 TIME INCREMENT COMPLETED   5.00    ,  FRACTION OF STEP COMPLETED  0.170    
 STEP TIME COMPLETED        170.    ,  TOTAL TIME COMPLETED         170.    


  INCREMENT    35 STARTS. ATTEMPT NUMBER  1, TIME INCREMENT   5.00    
 
	SYMMETRIC NEW DIRECT SPARSE SOLVER RUNNING ON
 	1 HOST x 1 MPI RANK PER HOST x 8 THREADS PER RANK
        NUMBER OF EQUATIONS:  124146
        NUMBER OF RHS:        1
        NUMBER OF FLOPS:      3.486e+10
        SOLVER ELAPSED TIME:  405ms

               CONVERGENCE CHECKS FOR EQUILIBRIUM ITERATION     1


 AVERAGE FORCE                       1.26       TIME AVG. FORCE       0.649    
 LARGEST SCALED RESIDUAL FORCE     -1.926E-06   AT NODE       2285   DOF  3
   INSTANCE: CHD4                                                                            
  CORRESPONDING RESIDUAL FORCE     -1.926E-06
 LARGEST INCREMENT OF DISP.         7.550E-06   AT NODE         11   DOF  2
   INSTANCE: CHD4                                                                            
 LARGEST CORRECTION TO DISP.        4.847E-11   AT NODE        596   DOF  2
   INSTANCE: CHD4                                                                            
          THE FORCE     EQUILIBRIUM EQUATIONS HAVE CONVERGED

 ITERATION SUMMARY FOR THE INCREMENT:   1 TOTAL ITERATIONS, OF WHICH
   0 ARE SEVERE DISCONTINUITY ITERATIONS AND  1 ARE EQUILIBRIUM ITERATIONS.

 TIME INCREMENT COMPLETED   5.00    ,  FRACTION OF STEP COMPLETED  0.175    
 STEP TIME COMPLETED        175.    ,  TOTAL TIME COMPLETED         175.    


  INCREMENT    36 STARTS. ATTEMPT NUMBER  1, TIME INCREMENT   5.00    
 
	SYMMETRIC NEW DIRECT SPARSE SOLVER RUNNING ON
 	1 HOST x 1 MPI RANK PER HOST x 8 THREADS PER RANK
        NUMBER OF EQUATIONS:  124146
        NUMBER OF RHS:        1
        NUMBER OF FLOPS:      3.486e+10
        SOLVER ELAPSED TIME:  412ms

               CONVERGENCE CHECKS FOR EQUILIBRIUM ITERATION     1


 AVERAGE FORCE                       1.30       TIME AVG. FORCE       0.667    
 LARGEST SCALED RESIDUAL FORCE     -1.981E-06   AT NODE       2285   DOF  3
   INSTANCE: CHD4                                                                            
  CORRESPONDING RESIDUAL FORCE     -1.981E-06
 LARGEST INCREMENT OF DISP.         7.550E-06   AT NODE         11   DOF  2
   INSTANCE: CHD4                                                                            
 LARGEST CORRECTION TO DISP.        4.846E-11   AT NODE        596   DOF  2
   INSTANCE: CHD4                                                                            
          THE FORCE     EQUILIBRIUM EQUATIONS HAVE CONVERGED

 ITERATION SUMMARY FOR THE INCREMENT:   1 TOTAL ITERATIONS, OF WHICH
   0 ARE SEVERE DISCONTINUITY ITERATIONS AND  1 ARE EQUILIBRIUM ITERATIONS.

 TIME INCREMENT COMPLETED   5.00    ,  FRACTION OF STEP COMPLETED  0.180    
 STEP TIME COMPLETED        180.    ,  TOTAL TIME COMPLETED         180.    


  INCREMENT    37 STARTS. ATTEMPT NUMBER  1, TIME INCREMENT   5.00    
 
	SYMMETRIC NEW DIRECT SPARSE SOLVER RUNNING ON
 	1 HOST x 1 MPI RANK PER HOST x 8 THREADS PER RANK
        NUMBER OF EQUATIONS:  124146
        NUMBER OF RHS:        1
        NUMBER OF FLOPS:      3.486e+10
        SOLVER ELAPSED TIME:  397ms

               CONVERGENCE CHECKS FOR EQUILIBRIUM ITERATION     1


 AVERAGE FORCE                       1.33       TIME AVG. FORCE       0.685    
 LARGEST SCALED RESIDUAL FORCE     -2.036E-06   AT NODE       2285   DOF  3
   INSTANCE: CHD4                                                                            
  CORRESPONDING RESIDUAL FORCE     -2.036E-06
 LARGEST INCREMENT OF DISP.         7.550E-06   AT NODE         11   DOF  2
   INSTANCE: CHD4                                                                            
 LARGEST CORRECTION TO DISP.        4.845E-11   AT NODE        596   DOF  2
   INSTANCE: CHD4                                                                            
          THE FORCE     EQUILIBRIUM EQUATIONS HAVE CONVERGED

 ITERATION SUMMARY FOR THE INCREMENT:   1 TOTAL ITERATIONS, OF WHICH
   0 ARE SEVERE DISCONTINUITY ITERATIONS AND  1 ARE EQUILIBRIUM ITERATIONS.

 TIME INCREMENT COMPLETED   5.00    ,  FRACTION OF STEP COMPLETED  0.185    
 STEP TIME COMPLETED        185.    ,  TOTAL TIME COMPLETED         185.    


  INCREMENT    38 STARTS. ATTEMPT NUMBER  1, TIME INCREMENT   5.00    
 
	SYMMETRIC NEW DIRECT SPARSE SOLVER RUNNING ON
 	1 HOST x 1 MPI RANK PER HOST x 8 THREADS PER RANK
        NUMBER OF EQUATIONS:  124146
        NUMBER OF RHS:        1
        NUMBER OF FLOPS:      3.486e+10
        SOLVER ELAPSED TIME:  396ms

               CONVERGENCE CHECKS FOR EQUILIBRIUM ITERATION     1


 AVERAGE FORCE                       1.37       TIME AVG. FORCE       0.703    
 LARGEST SCALED RESIDUAL FORCE     -2.091E-06   AT NODE       2285   DOF  3
   INSTANCE: CHD4                                                                            
  CORRESPONDING RESIDUAL FORCE     -2.091E-06
 LARGEST INCREMENT OF DISP.         7.550E-06   AT NODE         11   DOF  2
   INSTANCE: CHD4                                                                            
 LARGEST CORRECTION TO DISP.        4.845E-11   AT NODE        596   DOF  2
   INSTANCE: CHD4                                                                            
          THE FORCE     EQUILIBRIUM EQUATIONS HAVE CONVERGED

 ITERATION SUMMARY FOR THE INCREMENT:   1 TOTAL ITERATIONS, OF WHICH
   0 ARE SEVERE DISCONTINUITY ITERATIONS AND  1 ARE EQUILIBRIUM ITERATIONS.

 TIME INCREMENT COMPLETED   5.00    ,  FRACTION OF STEP COMPLETED  0.190    
 STEP TIME COMPLETED        190.    ,  TOTAL TIME COMPLETED         190.    


  INCREMENT    39 STARTS. ATTEMPT NUMBER  1, TIME INCREMENT   5.00    
 
	SYMMETRIC NEW DIRECT SPARSE SOLVER RUNNING ON
 	1 HOST x 1 MPI RANK PER HOST x 8 THREADS PER RANK
        NUMBER OF EQUATIONS:  124146
        NUMBER OF RHS:        1
        NUMBER OF FLOPS:      3.486e+10
        SOLVER ELAPSED TIME:  393ms

               CONVERGENCE CHECKS FOR EQUILIBRIUM ITERATION     1


 AVERAGE FORCE                       1.41       TIME AVG. FORCE       0.721    
 LARGEST SCALED RESIDUAL FORCE      2.363E-04   AT NODE      33450   DOF  2
   INSTANCE: CHD4                                                                            
  CORRESPONDING RESIDUAL FORCE      2.363E-04
 LARGEST INCREMENT OF DISP.         7.550E-06   AT NODE         11   DOF  2
   INSTANCE: CHD4                                                                            
 LARGEST CORRECTION TO DISP.        9.150E-10   AT NODE      32294   DOF  2
   INSTANCE: CHD4                                                                            
          THE FORCE     EQUILIBRIUM EQUATIONS HAVE CONVERGED

 ITERATION SUMMARY FOR THE INCREMENT:   1 TOTAL ITERATIONS, OF WHICH
   0 ARE SEVERE DISCONTINUITY ITERATIONS AND  1 ARE EQUILIBRIUM ITERATIONS.

 TIME INCREMENT COMPLETED   5.00    ,  FRACTION OF STEP COMPLETED  0.195    
 STEP TIME COMPLETED        195.    ,  TOTAL TIME COMPLETED         195.    


  INCREMENT    40 STARTS. ATTEMPT NUMBER  1, TIME INCREMENT   5.00    
 
	SYMMETRIC NEW DIRECT SPARSE SOLVER RUNNING ON
 	1 HOST x 1 MPI RANK PER HOST x 8 THREADS PER RANK
        NUMBER OF EQUATIONS:  124146
        NUMBER OF RHS:        1
        NUMBER OF FLOPS:      3.486e+10
        SOLVER ELAPSED TIME:  399ms

               CONVERGENCE CHECKS FOR EQUILIBRIUM ITERATION     1


 AVERAGE FORCE                       1.44       TIME AVG. FORCE       0.739    
 LARGEST SCALED RESIDUAL FORCE      5.424E-03   AT NODE      32880   DOF  2
   INSTANCE: CHD4                                                                            
  CORRESPONDING RESIDUAL FORCE      5.424E-03
 LARGEST INCREMENT OF DISP.         7.550E-06   AT NODE         11   DOF  2
   INSTANCE: CHD4                                                                            
 LARGEST CORRECTION TO DISP.       -9.703E-09   AT NODE      32705   DOF  3
   INSTANCE: CHD4                                                                            
          FORCE     EQUILIBRIUM NOT ACHIEVED WITHIN TOLERANCE.
 
	SYMMETRIC NEW DIRECT SPARSE SOLVER RUNNING ON
 	1 HOST x 1 MPI RANK PER HOST x 8 THREADS PER RANK
        NUMBER OF EQUATIONS:  124146
        NUMBER OF RHS:        1
        NUMBER OF FLOPS:      3.486e+10
        SOLVER ELAPSED TIME:  377ms

               CONVERGENCE CHECKS FOR EQUILIBRIUM ITERATION     2


 AVERAGE FORCE                       1.44       TIME AVG. FORCE       0.739    
 LARGEST SCALED RESIDUAL FORCE      4.524E-05   AT NODE      32880   DOF  2
   INSTANCE: CHD4                                                                            
  CORRESPONDING RESIDUAL FORCE      4.524E-05
 LARGEST INCREMENT OF DISP.         7.550E-06   AT NODE         11   DOF  2
   INSTANCE: CHD4                                                                            
 LARGEST CORRECTION TO DISP.        2.947E-10   AT NODE      32880   DOF  2
   INSTANCE: CHD4                                                                            
          THE FORCE     EQUILIBRIUM EQUATIONS HAVE CONVERGED

 ITERATION SUMMARY FOR THE INCREMENT:   2 TOTAL ITERATIONS, OF WHICH
   0 ARE SEVERE DISCONTINUITY ITERATIONS AND  2 ARE EQUILIBRIUM ITERATIONS.

 TIME INCREMENT COMPLETED   5.00    ,  FRACTION OF STEP COMPLETED  0.200    
 STEP TIME COMPLETED        200.    ,  TOTAL TIME COMPLETED         200.    


  INCREMENT    41 STARTS. ATTEMPT NUMBER  1, TIME INCREMENT   5.00    
 
	SYMMETRIC NEW DIRECT SPARSE SOLVER RUNNING ON
 	1 HOST x 1 MPI RANK PER HOST x 8 THREADS PER RANK
        NUMBER OF EQUATIONS:  124146
        NUMBER OF RHS:        1
        NUMBER OF FLOPS:      3.486e+10
        SOLVER ELAPSED TIME:  401ms

               CONVERGENCE CHECKS FOR EQUILIBRIUM ITERATION     1


 AVERAGE FORCE                       1.48       TIME AVG. FORCE       0.757    
 LARGEST SCALED RESIDUAL FORCE      3.876E-03   AT NODE      33481   DOF  2
   INSTANCE: CHD4                                                                            
  CORRESPONDING RESIDUAL FORCE      3.876E-03
 LARGEST INCREMENT OF DISP.         7.550E-06   AT NODE         11   DOF  2
   INSTANCE: CHD4                                                                            
 LARGEST CORRECTION TO DISP.        7.616E-09   AT NODE      28502   DOF  2
   INSTANCE: CHD4                                                                            
          FORCE     EQUILIBRIUM NOT ACHIEVED WITHIN TOLERANCE.
 
	SYMMETRIC NEW DIRECT SPARSE SOLVER RUNNING ON
 	1 HOST x 1 MPI RANK PER HOST x 8 THREADS PER RANK
        NUMBER OF EQUATIONS:  124146
        NUMBER OF RHS:        1
        NUMBER OF FLOPS:      3.486e+10
        SOLVER ELAPSED TIME:  401ms

               CONVERGENCE CHECKS FOR EQUILIBRIUM ITERATION     2


 AVERAGE FORCE                       1.48       TIME AVG. FORCE       0.757    
 LARGEST SCALED RESIDUAL FORCE     -3.926E-05   AT NODE      36961   DOF  2
   INSTANCE: CHD4                                                                            
  CORRESPONDING RESIDUAL FORCE     -3.926E-05
 LARGEST INCREMENT OF DISP.         7.550E-06   AT NODE         11   DOF  2
   INSTANCE: CHD4                                                                            
 LARGEST CORRECTION TO DISP.       -3.154E-10   AT NODE      38386   DOF  2
   INSTANCE: CHD4                                                                            
          THE FORCE     EQUILIBRIUM EQUATIONS HAVE CONVERGED

 ITERATION SUMMARY FOR THE INCREMENT:   2 TOTAL ITERATIONS, OF WHICH
   0 ARE SEVERE DISCONTINUITY ITERATIONS AND  2 ARE EQUILIBRIUM ITERATIONS.

 TIME INCREMENT COMPLETED   5.00    ,  FRACTION OF STEP COMPLETED  0.205    
 STEP TIME COMPLETED        205.    ,  TOTAL TIME COMPLETED         205.    


  INCREMENT    42 STARTS. ATTEMPT NUMBER  1, TIME INCREMENT   5.00    
 
	SYMMETRIC NEW DIRECT SPARSE SOLVER RUNNING ON
 	1 HOST x 1 MPI RANK PER HOST x 8 THREADS PER RANK
        NUMBER OF EQUATIONS:  124146
        NUMBER OF RHS:        1
        NUMBER OF FLOPS:      3.486e+10
        SOLVER ELAPSED TIME:  402ms

               CONVERGENCE CHECKS FOR EQUILIBRIUM ITERATION     1


 AVERAGE FORCE                       1.51       TIME AVG. FORCE       0.775    
 LARGEST SCALED RESIDUAL FORCE     -1.173E-03   AT NODE      37732   DOF  2
   INSTANCE: CHD4                                                                            
  CORRESPONDING RESIDUAL FORCE     -1.173E-03
 LARGEST INCREMENT OF DISP.         7.550E-06   AT NODE         11   DOF  2
   INSTANCE: CHD4                                                                            
 LARGEST CORRECTION TO DISP.        6.528E-09   AT NODE      33481   DOF  2
   INSTANCE: CHD4                                                                            
          THE FORCE     EQUILIBRIUM EQUATIONS HAVE CONVERGED

 ITERATION SUMMARY FOR THE INCREMENT:   1 TOTAL ITERATIONS, OF WHICH
   0 ARE SEVERE DISCONTINUITY ITERATIONS AND  1 ARE EQUILIBRIUM ITERATIONS.

 TIME INCREMENT COMPLETED   5.00    ,  FRACTION OF STEP COMPLETED  0.210    
 STEP TIME COMPLETED        210.    ,  TOTAL TIME COMPLETED         210.    


  INCREMENT    43 STARTS. ATTEMPT NUMBER  1, TIME INCREMENT   5.00    
 
	SYMMETRIC NEW DIRECT SPARSE SOLVER RUNNING ON
 	1 HOST x 1 MPI RANK PER HOST x 8 THREADS PER RANK
        NUMBER OF EQUATIONS:  124146
        NUMBER OF RHS:        1
        NUMBER OF FLOPS:      3.486e+10
        SOLVER ELAPSED TIME:  415ms

               CONVERGENCE CHECKS FOR EQUILIBRIUM ITERATION     1


 AVERAGE FORCE                       1.55       TIME AVG. FORCE       0.793    
 LARGEST SCALED RESIDUAL FORCE      3.229E-03   AT NODE      33438   DOF  2
   INSTANCE: CHD4                                                                            
  CORRESPONDING RESIDUAL FORCE      3.229E-03
 LARGEST INCREMENT OF DISP.         7.550E-06   AT NODE         11   DOF  2
   INSTANCE: CHD4                                                                            
 LARGEST CORRECTION TO DISP.        8.297E-09   AT NODE      33056   DOF  2
   INSTANCE: CHD4                                                                            
          THE FORCE     EQUILIBRIUM EQUATIONS HAVE CONVERGED

 ITERATION SUMMARY FOR THE INCREMENT:   1 TOTAL ITERATIONS, OF WHICH
   0 ARE SEVERE DISCONTINUITY ITERATIONS AND  1 ARE EQUILIBRIUM ITERATIONS.

 TIME INCREMENT COMPLETED   5.00    ,  FRACTION OF STEP COMPLETED  0.215    
 STEP TIME COMPLETED        215.    ,  TOTAL TIME COMPLETED         215.    


  INCREMENT    44 STARTS. ATTEMPT NUMBER  1, TIME INCREMENT   5.00    
 
	SYMMETRIC NEW DIRECT SPARSE SOLVER RUNNING ON
 	1 HOST x 1 MPI RANK PER HOST x 8 THREADS PER RANK
        NUMBER OF EQUATIONS:  124146
        NUMBER OF RHS:        1
        NUMBER OF FLOPS:      3.486e+10
        SOLVER ELAPSED TIME:  401ms

               CONVERGENCE CHECKS FOR EQUILIBRIUM ITERATION     1


 AVERAGE FORCE                       1.59       TIME AVG. FORCE       0.811    
 LARGEST SCALED RESIDUAL FORCE     -1.168E-03   AT NODE      41187   DOF  2
   INSTANCE: CHD4                                                                            
  CORRESPONDING RESIDUAL FORCE     -1.168E-03
 LARGEST INCREMENT OF DISP.         7.550E-06   AT NODE         11   DOF  2
   INSTANCE: CHD4                                                                            
 LARGEST CORRECTION TO DISP.        5.532E-09   AT NODE      28739   DOF  2
   INSTANCE: CHD4                                                                            
          THE FORCE     EQUILIBRIUM EQUATIONS HAVE CONVERGED

 ITERATION SUMMARY FOR THE INCREMENT:   1 TOTAL ITERATIONS, OF WHICH
   0 ARE SEVERE DISCONTINUITY ITERATIONS AND  1 ARE EQUILIBRIUM ITERATIONS.

 TIME INCREMENT COMPLETED   5.00    ,  FRACTION OF STEP COMPLETED  0.220    
 STEP TIME COMPLETED        220.    ,  TOTAL TIME COMPLETED         220.    


  INCREMENT    45 STARTS. ATTEMPT NUMBER  1, TIME INCREMENT   5.00    
 
	SYMMETRIC NEW DIRECT SPARSE SOLVER RUNNING ON
 	1 HOST x 1 MPI RANK PER HOST x 8 THREADS PER RANK
        NUMBER OF EQUATIONS:  124146
        NUMBER OF RHS:        1
        NUMBER OF FLOPS:      3.486e+10
        SOLVER ELAPSED TIME:  404ms

               CONVERGENCE CHECKS FOR EQUILIBRIUM ITERATION     1


 AVERAGE FORCE                       1.62       TIME AVG. FORCE       0.829    
 LARGEST SCALED RESIDUAL FORCE     -4.240E-03   AT NODE      41265   DOF  2
   INSTANCE: CHD4                                                                            
  CORRESPONDING RESIDUAL FORCE     -4.240E-03
 LARGEST INCREMENT OF DISP.         7.550E-06   AT NODE         11   DOF  2
   INSTANCE: CHD4                                                                            
 LARGEST CORRECTION TO DISP.        6.740E-09   AT NODE      34110   DOF  2
   INSTANCE: CHD4                                                                            
          FORCE     EQUILIBRIUM NOT ACHIEVED WITHIN TOLERANCE.
 
	SYMMETRIC NEW DIRECT SPARSE SOLVER RUNNING ON
 	1 HOST x 1 MPI RANK PER HOST x 8 THREADS PER RANK
        NUMBER OF EQUATIONS:  124146
        NUMBER OF RHS:        1
        NUMBER OF FLOPS:      3.486e+10
        SOLVER ELAPSED TIME:  380ms

               CONVERGENCE CHECKS FOR EQUILIBRIUM ITERATION     2


 AVERAGE FORCE                       1.62       TIME AVG. FORCE       0.829    
 LARGEST SCALED RESIDUAL FORCE      3.431E-05   AT NODE      41304   DOF  2
   INSTANCE: CHD4                                                                            
  CORRESPONDING RESIDUAL FORCE      3.431E-05
 LARGEST INCREMENT OF DISP.         7.550E-06   AT NODE         11   DOF  2
   INSTANCE: CHD4                                                                            
 LARGEST CORRECTION TO DISP.       -2.628E-10   AT NODE      23503   DOF  2
   INSTANCE: CHD4                                                                            
          THE FORCE     EQUILIBRIUM EQUATIONS HAVE CONVERGED

 ITERATION SUMMARY FOR THE INCREMENT:   2 TOTAL ITERATIONS, OF WHICH
   0 ARE SEVERE DISCONTINUITY ITERATIONS AND  2 ARE EQUILIBRIUM ITERATIONS.

 TIME INCREMENT COMPLETED   5.00    ,  FRACTION OF STEP COMPLETED  0.225    
 STEP TIME COMPLETED        225.    ,  TOTAL TIME COMPLETED         225.    


  INCREMENT    46 STARTS. ATTEMPT NUMBER  1, TIME INCREMENT   5.00    
 
	SYMMETRIC NEW DIRECT SPARSE SOLVER RUNNING ON
 	1 HOST x 1 MPI RANK PER HOST x 8 THREADS PER RANK
        NUMBER OF EQUATIONS:  124146
        NUMBER OF RHS:        1
        NUMBER OF FLOPS:      3.486e+10
        SOLVER ELAPSED TIME:  397ms

               CONVERGENCE CHECKS FOR EQUILIBRIUM ITERATION     1


 AVERAGE FORCE                       1.66       TIME AVG. FORCE       0.847    
 LARGEST SCALED RESIDUAL FORCE     -2.582E-03   AT NODE      41226   DOF  2
   INSTANCE: CHD4                                                                            
  CORRESPONDING RESIDUAL FORCE     -2.582E-03
 LARGEST INCREMENT OF DISP.         7.550E-06   AT NODE         11   DOF  2
   INSTANCE: CHD4                                                                            
 LARGEST CORRECTION TO DISP.        6.161E-09   AT NODE      34263   DOF  2
   INSTANCE: CHD4                                                                            
          THE FORCE     EQUILIBRIUM EQUATIONS HAVE CONVERGED

 ITERATION SUMMARY FOR THE INCREMENT:   1 TOTAL ITERATIONS, OF WHICH
   0 ARE SEVERE DISCONTINUITY ITERATIONS AND  1 ARE EQUILIBRIUM ITERATIONS.

 TIME INCREMENT COMPLETED   5.00    ,  FRACTION OF STEP COMPLETED  0.230    
 STEP TIME COMPLETED        230.    ,  TOTAL TIME COMPLETED         230.    


  INCREMENT    47 STARTS. ATTEMPT NUMBER  1, TIME INCREMENT   5.00    
 
	SYMMETRIC NEW DIRECT SPARSE SOLVER RUNNING ON
 	1 HOST x 1 MPI RANK PER HOST x 8 THREADS PER RANK
        NUMBER OF EQUATIONS:  124146
        NUMBER OF RHS:        1
        NUMBER OF FLOPS:      3.486e+10
        SOLVER ELAPSED TIME:  393ms

               CONVERGENCE CHECKS FOR EQUILIBRIUM ITERATION     1


 AVERAGE FORCE                       1.69       TIME AVG. FORCE       0.865    
 LARGEST SCALED RESIDUAL FORCE      2.322E-03   AT NODE      36486   DOF  2
   INSTANCE: CHD4                                                                            
  CORRESPONDING RESIDUAL FORCE      2.322E-03
 LARGEST INCREMENT OF DISP.         7.550E-06   AT NODE         11   DOF  2
   INSTANCE: CHD4                                                                            
 LARGEST CORRECTION TO DISP.        6.173E-09   AT NODE      33565   DOF  2
   INSTANCE: CHD4                                                                            
          THE FORCE     EQUILIBRIUM EQUATIONS HAVE CONVERGED

 ITERATION SUMMARY FOR THE INCREMENT:   1 TOTAL ITERATIONS, OF WHICH
   0 ARE SEVERE DISCONTINUITY ITERATIONS AND  1 ARE EQUILIBRIUM ITERATIONS.

 TIME INCREMENT COMPLETED   5.00    ,  FRACTION OF STEP COMPLETED  0.235    
 STEP TIME COMPLETED        235.    ,  TOTAL TIME COMPLETED         235.    


  INCREMENT    48 STARTS. ATTEMPT NUMBER  1, TIME INCREMENT   5.00    
 
	SYMMETRIC NEW DIRECT SPARSE SOLVER RUNNING ON
 	1 HOST x 1 MPI RANK PER HOST x 8 THREADS PER RANK
        NUMBER OF EQUATIONS:  124146
        NUMBER OF RHS:        1
        NUMBER OF FLOPS:      3.486e+10
        SOLVER ELAPSED TIME:  397ms

               CONVERGENCE CHECKS FOR EQUILIBRIUM ITERATION     1


 AVERAGE FORCE                       1.73       TIME AVG. FORCE       0.883    
 LARGEST SCALED RESIDUAL FORCE      1.805E-03   AT NODE      28766   DOF  2
   INSTANCE: CHD4                                                                            
  CORRESPONDING RESIDUAL FORCE      1.805E-03
 LARGEST INCREMENT OF DISP.         7.550E-06   AT NODE         11   DOF  2
   INSTANCE: CHD4                                                                            
 LARGEST CORRECTION TO DISP.        6.344E-09   AT NODE      29462   DOF  2
   INSTANCE: CHD4                                                                            
          THE FORCE     EQUILIBRIUM EQUATIONS HAVE CONVERGED

 ITERATION SUMMARY FOR THE INCREMENT:   1 TOTAL ITERATIONS, OF WHICH
   0 ARE SEVERE DISCONTINUITY ITERATIONS AND  1 ARE EQUILIBRIUM ITERATIONS.

 TIME INCREMENT COMPLETED   5.00    ,  FRACTION OF STEP COMPLETED  0.240    
 STEP TIME COMPLETED        240.    ,  TOTAL TIME COMPLETED         240.    


  INCREMENT    49 STARTS. ATTEMPT NUMBER  1, TIME INCREMENT   5.00    
 
	SYMMETRIC NEW DIRECT SPARSE SOLVER RUNNING ON
 	1 HOST x 1 MPI RANK PER HOST x 8 THREADS PER RANK
        NUMBER OF EQUATIONS:  124146
        NUMBER OF RHS:        1
        NUMBER OF FLOPS:      3.486e+10
        SOLVER ELAPSED TIME:  400ms

               CONVERGENCE CHECKS FOR EQUILIBRIUM ITERATION     1


 AVERAGE FORCE                       1.76       TIME AVG. FORCE       0.901    
 LARGEST SCALED RESIDUAL FORCE      1.273E-03   AT NODE      37919   DOF  2
   INSTANCE: CHD4                                                                            
  CORRESPONDING RESIDUAL FORCE      1.273E-03
 LARGEST INCREMENT OF DISP.         7.550E-06   AT NODE         11   DOF  2
   INSTANCE: CHD4                                                                            
 LARGEST CORRECTION TO DISP.        4.870E-09   AT NODE      28766   DOF  2
   INSTANCE: CHD4                                                                            
          THE FORCE     EQUILIBRIUM EQUATIONS HAVE CONVERGED

 ITERATION SUMMARY FOR THE INCREMENT:   1 TOTAL ITERATIONS, OF WHICH
   0 ARE SEVERE DISCONTINUITY ITERATIONS AND  1 ARE EQUILIBRIUM ITERATIONS.

 TIME INCREMENT COMPLETED   5.00    ,  FRACTION OF STEP COMPLETED  0.245    
 STEP TIME COMPLETED        245.    ,  TOTAL TIME COMPLETED         245.    


  INCREMENT    50 STARTS. ATTEMPT NUMBER  1, TIME INCREMENT   5.00    
 
	SYMMETRIC NEW DIRECT SPARSE SOLVER RUNNING ON
 	1 HOST x 1 MPI RANK PER HOST x 8 THREADS PER RANK
        NUMBER OF EQUATIONS:  124146
        NUMBER OF RHS:        1
        NUMBER OF FLOPS:      3.486e+10
        SOLVER ELAPSED TIME:  402ms

               CONVERGENCE CHECKS FOR EQUILIBRIUM ITERATION     1


 AVERAGE FORCE                       1.80       TIME AVG. FORCE       0.919    
 LARGEST SCALED RESIDUAL FORCE      3.628E-03   AT NODE      30995   DOF  2
   INSTANCE: CHD4                                                                            
  CORRESPONDING RESIDUAL FORCE      3.628E-03
 LARGEST INCREMENT OF DISP.         7.550E-06   AT NODE         11   DOF  2
   INSTANCE: CHD4                                                                            
 LARGEST CORRECTION TO DISP.        6.480E-09   AT NODE      31658   DOF  2
   INSTANCE: CHD4                                                                            
          THE FORCE     EQUILIBRIUM EQUATIONS HAVE CONVERGED

 ITERATION SUMMARY FOR THE INCREMENT:   1 TOTAL ITERATIONS, OF WHICH
   0 ARE SEVERE DISCONTINUITY ITERATIONS AND  1 ARE EQUILIBRIUM ITERATIONS.

 TIME INCREMENT COMPLETED   5.00    ,  FRACTION OF STEP COMPLETED  0.250    
 STEP TIME COMPLETED        250.    ,  TOTAL TIME COMPLETED         250.    


  INCREMENT    51 STARTS. ATTEMPT NUMBER  1, TIME INCREMENT   5.00    
 
	SYMMETRIC NEW DIRECT SPARSE SOLVER RUNNING ON
 	1 HOST x 1 MPI RANK PER HOST x 8 THREADS PER RANK
        NUMBER OF EQUATIONS:  124146
        NUMBER OF RHS:        1
        NUMBER OF FLOPS:      3.486e+10
        SOLVER ELAPSED TIME:  397ms

               CONVERGENCE CHECKS FOR EQUILIBRIUM ITERATION     1


 AVERAGE FORCE                       1.84       TIME AVG. FORCE       0.937    
 LARGEST SCALED RESIDUAL FORCE     -2.275E-03   AT NODE      25592   DOF  2
   INSTANCE: CHD4                                                                            
  CORRESPONDING RESIDUAL FORCE     -2.275E-03
 LARGEST INCREMENT OF DISP.         7.550E-06   AT NODE         11   DOF  2
[...]
        NUMBER OF FLOPS:      3.486e+10
        SOLVER ELAPSED TIME:  399ms

               CONVERGENCE CHECKS FOR EQUILIBRIUM ITERATION     1


 AVERAGE FORCE                       3.53       TIME AVG. FORCE        2.69    
 LARGEST SCALED RESIDUAL FORCE      0.320       AT NODE      24515   DOF  3
   INSTANCE: CHD4                                                                            
  CORRESPONDING RESIDUAL FORCE      0.320    
 LARGEST INCREMENT OF DISP.         8.077E-06   AT NODE      10279   DOF  2
   INSTANCE: CHD4                                                                            
 LARGEST CORRECTION TO DISP.        5.968E-08   AT NODE       8163   DOF  2
   INSTANCE: CHD4                                                                            
          FORCE     EQUILIBRIUM NOT ACHIEVED WITHIN TOLERANCE.
 
	SYMMETRIC NEW DIRECT SPARSE SOLVER RUNNING ON
 	1 HOST x 1 MPI RANK PER HOST x 8 THREADS PER RANK
        NUMBER OF EQUATIONS:  124146
        NUMBER OF RHS:        1
        NUMBER OF FLOPS:      3.486e+10
        SOLVER ELAPSED TIME:  406ms

               CONVERGENCE CHECKS FOR EQUILIBRIUM ITERATION     2


 AVERAGE FORCE                       3.53       TIME AVG. FORCE        2.69    
 LARGEST SCALED RESIDUAL FORCE      0.169       AT NODE      24515   DOF  3
   INSTANCE: CHD4                                                                            
  CORRESPONDING RESIDUAL FORCE      0.169    
 LARGEST INCREMENT OF DISP.         8.074E-06   AT NODE      10279   DOF  2
   INSTANCE: CHD4                                                                            
 LARGEST CORRECTION TO DISP.        2.452E-08   AT NODE       7986   DOF  1
   INSTANCE: CHD4                                                                            
          FORCE     EQUILIBRIUM NOT ACHIEVED WITHIN TOLERANCE.
 
	SYMMETRIC NEW DIRECT SPARSE SOLVER RUNNING ON
 	1 HOST x 1 MPI RANK PER HOST x 8 THREADS PER RANK
        NUMBER OF EQUATIONS:  124146
        NUMBER OF RHS:        1
        NUMBER OF FLOPS:      3.486e+10
        SOLVER ELAPSED TIME:  401ms

               CONVERGENCE CHECKS FOR EQUILIBRIUM ITERATION     3


 AVERAGE FORCE                       3.53       TIME AVG. FORCE        2.69    
 LARGEST SCALED RESIDUAL FORCE      0.127       AT NODE      24515   DOF  3
   INSTANCE: CHD4                                                                            
  CORRESPONDING RESIDUAL FORCE      0.127    
 LARGEST INCREMENT OF DISP.         8.070E-06   AT NODE       8787   DOF  2
   INSTANCE: CHD4                                                                            
 LARGEST CORRECTION TO DISP.       -1.027E-08   AT NODE      18063   DOF  1
   INSTANCE: CHD4                                                                            
          FORCE     EQUILIBRIUM NOT ACHIEVED WITHIN TOLERANCE.
 
	SYMMETRIC NEW DIRECT SPARSE SOLVER RUNNING ON
 	1 HOST x 1 MPI RANK PER HOST x 8 THREADS PER RANK
        NUMBER OF EQUATIONS:  124146
        NUMBER OF RHS:        1
        NUMBER OF FLOPS:      3.486e+10
        SOLVER ELAPSED TIME:  405ms

               CONVERGENCE CHECKS FOR EQUILIBRIUM ITERATION     4


 AVERAGE FORCE                       3.53       TIME AVG. FORCE        2.69    
 LARGEST SCALED RESIDUAL FORCE     -7.376E-02   AT NODE      27819   DOF  2
   INSTANCE: CHD4                                                                            
  CORRESPONDING RESIDUAL FORCE     -7.376E-02
 LARGEST INCREMENT OF DISP.         8.068E-06   AT NODE       8787   DOF  2
   INSTANCE: CHD4                                                                            
 LARGEST CORRECTION TO DISP.       -5.939E-09   AT NODE      24337   DOF  2
   INSTANCE: CHD4                                                                            
          FORCE     EQUILIBRIUM NOT ACHIEVED WITHIN TOLERANCE.
 
	SYMMETRIC NEW DIRECT SPARSE SOLVER RUNNING ON
 	1 HOST x 1 MPI RANK PER HOST x 8 THREADS PER RANK
        NUMBER OF EQUATIONS:  124146
        NUMBER OF RHS:        1
        NUMBER OF FLOPS:      3.486e+10
        SOLVER ELAPSED TIME:  391ms

               CONVERGENCE CHECKS FOR EQUILIBRIUM ITERATION     5


 AVERAGE FORCE                       3.53       TIME AVG. FORCE        2.69    
 LARGEST SCALED RESIDUAL FORCE      5.813E-02   AT NODE      24516   DOF  3
   INSTANCE: CHD4                                                                            
  CORRESPONDING RESIDUAL FORCE      5.813E-02
 LARGEST INCREMENT OF DISP.         8.067E-06   AT NODE       8787   DOF  2
   INSTANCE: CHD4                                                                            
 LARGEST CORRECTION TO DISP.       -3.976E-09   AT NODE      24961   DOF  2
   INSTANCE: CHD4                                                                            
          FORCE     EQUILIBRIUM NOT ACHIEVED WITHIN TOLERANCE.
 
	SYMMETRIC NEW DIRECT SPARSE SOLVER RUNNING ON
 	1 HOST x 1 MPI RANK PER HOST x 8 THREADS PER RANK
        NUMBER OF EQUATIONS:  124146
        NUMBER OF RHS:        1
        NUMBER OF FLOPS:      3.486e+10
        SOLVER ELAPSED TIME:  410ms

               CONVERGENCE CHECKS FOR EQUILIBRIUM ITERATION     6


 AVERAGE FORCE                       3.53       TIME AVG. FORCE        2.69    
 LARGEST SCALED RESIDUAL FORCE     -3.677E-02   AT NODE      27819   DOF  2
   INSTANCE: CHD4                                                                            
  CORRESPONDING RESIDUAL FORCE     -3.677E-02
 LARGEST INCREMENT OF DISP.         8.066E-06   AT NODE       8787   DOF  2
   INSTANCE: CHD4                                                                            
 LARGEST CORRECTION TO DISP.       -2.763E-09   AT NODE      24961   DOF  2
   INSTANCE: CHD4                                                                            
          FORCE     EQUILIBRIUM NOT ACHIEVED WITHIN TOLERANCE.
 
	SYMMETRIC NEW DIRECT SPARSE SOLVER RUNNING ON
 	1 HOST x 1 MPI RANK PER HOST x 8 THREADS PER RANK
        NUMBER OF EQUATIONS:  124146
        NUMBER OF RHS:        1
        NUMBER OF FLOPS:      3.486e+10
        SOLVER ELAPSED TIME:  407ms

               CONVERGENCE CHECKS FOR EQUILIBRIUM ITERATION     7


 AVERAGE FORCE                       3.53       TIME AVG. FORCE        2.69    
 LARGEST SCALED RESIDUAL FORCE      2.748E-02   AT NODE      24516   DOF  3
   INSTANCE: CHD4                                                                            
  CORRESPONDING RESIDUAL FORCE      2.748E-02
 LARGEST INCREMENT OF DISP.         8.066E-06   AT NODE       8787   DOF  2
   INSTANCE: CHD4                                                                            
 LARGEST CORRECTION TO DISP.       -1.896E-09   AT NODE      24961   DOF  2
   INSTANCE: CHD4                                                                            
          FORCE     EQUILIBRIUM NOT ACHIEVED WITHIN TOLERANCE.
 
	SYMMETRIC NEW DIRECT SPARSE SOLVER RUNNING ON
 	1 HOST x 1 MPI RANK PER HOST x 8 THREADS PER RANK
        NUMBER OF EQUATIONS:  124146
        NUMBER OF RHS:        1
        NUMBER OF FLOPS:      3.486e+10
        SOLVER ELAPSED TIME:  401ms

               CONVERGENCE CHECKS FOR EQUILIBRIUM ITERATION     8


 AVERAGE FORCE                       3.53       TIME AVG. FORCE        2.69    
 LARGEST SCALED RESIDUAL FORCE     -1.809E-02   AT NODE      27819   DOF  2
   INSTANCE: CHD4                                                                            
  CORRESPONDING RESIDUAL FORCE     -1.809E-02
 LARGEST INCREMENT OF DISP.         8.066E-06   AT NODE       8787   DOF  2
   INSTANCE: CHD4                                                                            
 LARGEST CORRECTION TO DISP.       -1.338E-09   AT NODE      24961   DOF  2
   INSTANCE: CHD4                                                                            
          FORCE     EQUILIBRIUM NOT ACHIEVED WITHIN TOLERANCE.
 
	SYMMETRIC NEW DIRECT SPARSE SOLVER RUNNING ON
 	1 HOST x 1 MPI RANK PER HOST x 8 THREADS PER RANK
        NUMBER OF EQUATIONS:  124146
        NUMBER OF RHS:        1
        NUMBER OF FLOPS:      3.486e+10
        SOLVER ELAPSED TIME:  401ms

               CONVERGENCE CHECKS FOR EQUILIBRIUM ITERATION     9


 AVERAGE FORCE                       3.53       TIME AVG. FORCE        2.69    
 LARGEST SCALED RESIDUAL FORCE      1.290E-02   AT NODE      24517   DOF  3
   INSTANCE: CHD4                                                                            
  CORRESPONDING RESIDUAL FORCE      1.290E-02
 LARGEST INCREMENT OF DISP.         8.066E-06   AT NODE       8787   DOF  2
   INSTANCE: CHD4                                                                            
 LARGEST CORRECTION TO DISP.       -9.194E-10   AT NODE      24961   DOF  2
   INSTANCE: CHD4                                                                            
          THE FORCE     EQUILIBRIUM EQUATIONS HAVE CONVERGED

 ITERATION SUMMARY FOR THE INCREMENT:   9 TOTAL ITERATIONS, OF WHICH
   0 ARE SEVERE DISCONTINUITY ITERATIONS AND  9 ARE EQUILIBRIUM ITERATIONS.

 TIME INCREMENT COMPLETED   5.00    ,  FRACTION OF STEP COMPLETED  0.995    
 STEP TIME COMPLETED        995.    ,  TOTAL TIME COMPLETED         995.    


  INCREMENT   200 STARTS. ATTEMPT NUMBER  1, TIME INCREMENT   5.00    
 
	SYMMETRIC NEW DIRECT SPARSE SOLVER RUNNING ON
 	1 HOST x 1 MPI RANK PER HOST x 8 THREADS PER RANK
        NUMBER OF EQUATIONS:  124146
        NUMBER OF RHS:        1
        NUMBER OF FLOPS:      3.486e+10
        SOLVER ELAPSED TIME:  404ms

               CONVERGENCE CHECKS FOR EQUILIBRIUM ITERATION     1


 AVERAGE FORCE                       3.52       TIME AVG. FORCE        2.69    
 LARGEST SCALED RESIDUAL FORCE      0.321       AT NODE      24515   DOF  3
   INSTANCE: CHD4                                                                            
  CORRESPONDING RESIDUAL FORCE      0.321    
 LARGEST INCREMENT OF DISP.         8.081E-06   AT NODE      10279   DOF  2
   INSTANCE: CHD4                                                                            
 LARGEST CORRECTION TO DISP.        5.970E-08   AT NODE       8163   DOF  2
   INSTANCE: CHD4                                                                            
          FORCE     EQUILIBRIUM NOT ACHIEVED WITHIN TOLERANCE.
 
	SYMMETRIC NEW DIRECT SPARSE SOLVER RUNNING ON
 	1 HOST x 1 MPI RANK PER HOST x 8 THREADS PER RANK
        NUMBER OF EQUATIONS:  124146
        NUMBER OF RHS:        1
        NUMBER OF FLOPS:      3.486e+10
        SOLVER ELAPSED TIME:  406ms

               CONVERGENCE CHECKS FOR EQUILIBRIUM ITERATION     2


 AVERAGE FORCE                       3.52       TIME AVG. FORCE        2.69    
 LARGEST SCALED RESIDUAL FORCE      0.172       AT NODE      24515   DOF  3
   INSTANCE: CHD4                                                                            
  CORRESPONDING RESIDUAL FORCE      0.172    
 LARGEST INCREMENT OF DISP.         8.078E-06   AT NODE      10279   DOF  2
   INSTANCE: CHD4                                                                            
 LARGEST CORRECTION TO DISP.        2.434E-08   AT NODE       7986   DOF  1
   INSTANCE: CHD4                                                                            
          FORCE     EQUILIBRIUM NOT ACHIEVED WITHIN TOLERANCE.
 
	SYMMETRIC NEW DIRECT SPARSE SOLVER RUNNING ON
 	1 HOST x 1 MPI RANK PER HOST x 8 THREADS PER RANK
        NUMBER OF EQUATIONS:  124146
        NUMBER OF RHS:        1
        NUMBER OF FLOPS:      3.486e+10
        SOLVER ELAPSED TIME:  407ms

               CONVERGENCE CHECKS FOR EQUILIBRIUM ITERATION     3


 AVERAGE FORCE                       3.52       TIME AVG. FORCE        2.69    
 LARGEST SCALED RESIDUAL FORCE      0.128       AT NODE      24515   DOF  3
   INSTANCE: CHD4                                                                            
  CORRESPONDING RESIDUAL FORCE      0.128    
 LARGEST INCREMENT OF DISP.         8.074E-06   AT NODE      10279   DOF  2
   INSTANCE: CHD4                                                                            
 LARGEST CORRECTION TO DISP.       -1.038E-08   AT NODE      18063   DOF  1
   INSTANCE: CHD4                                                                            
          FORCE     EQUILIBRIUM NOT ACHIEVED WITHIN TOLERANCE.
 
	SYMMETRIC NEW DIRECT SPARSE SOLVER RUNNING ON
 	1 HOST x 1 MPI RANK PER HOST x 8 THREADS PER RANK
        NUMBER OF EQUATIONS:  124146
        NUMBER OF RHS:        1
        NUMBER OF FLOPS:      3.486e+10
        SOLVER ELAPSED TIME:  410ms

               CONVERGENCE CHECKS FOR EQUILIBRIUM ITERATION     4


 AVERAGE FORCE                       3.52       TIME AVG. FORCE        2.69    
 LARGEST SCALED RESIDUAL FORCE     -7.331E-02   AT NODE      27819   DOF  2
   INSTANCE: CHD4                                                                            
  CORRESPONDING RESIDUAL FORCE     -7.331E-02
 LARGEST INCREMENT OF DISP.         8.072E-06   AT NODE      10279   DOF  2
   INSTANCE: CHD4                                                                            
 LARGEST CORRECTION TO DISP.       -5.982E-09   AT NODE      24337   DOF  2
   INSTANCE: CHD4                                                                            
          FORCE     EQUILIBRIUM NOT ACHIEVED WITHIN TOLERANCE.
 
	SYMMETRIC NEW DIRECT SPARSE SOLVER RUNNING ON
 	1 HOST x 1 MPI RANK PER HOST x 8 THREADS PER RANK
        NUMBER OF EQUATIONS:  124146
        NUMBER OF RHS:        1
        NUMBER OF FLOPS:      3.486e+10
        SOLVER ELAPSED TIME:  403ms

               CONVERGENCE CHECKS FOR EQUILIBRIUM ITERATION     5


 AVERAGE FORCE                       3.52       TIME AVG. FORCE        2.69    
 LARGEST SCALED RESIDUAL FORCE      5.757E-02   AT NODE      24516   DOF  3
   INSTANCE: CHD4                                                                            
  CORRESPONDING RESIDUAL FORCE      5.757E-02
 LARGEST INCREMENT OF DISP.         8.071E-06   AT NODE      10279   DOF  2
   INSTANCE: CHD4                                                                            
 LARGEST CORRECTION TO DISP.       -3.933E-09   AT NODE      37129   DOF  2
   INSTANCE: CHD4                                                                            
          FORCE     EQUILIBRIUM NOT ACHIEVED WITHIN TOLERANCE.
 
	SYMMETRIC NEW DIRECT SPARSE SOLVER RUNNING ON
 	1 HOST x 1 MPI RANK PER HOST x 8 THREADS PER RANK
        NUMBER OF EQUATIONS:  124146
        NUMBER OF RHS:        1
        NUMBER OF FLOPS:      3.486e+10
        SOLVER ELAPSED TIME:  276ms

               CONVERGENCE CHECKS FOR EQUILIBRIUM ITERATION     6


 AVERAGE FORCE                       3.52       TIME AVG. FORCE        2.69    
 LARGEST SCALED RESIDUAL FORCE     -3.653E-02   AT NODE      27819   DOF  2
   INSTANCE: CHD4                                                                            
  CORRESPONDING RESIDUAL FORCE     -3.653E-02
 LARGEST INCREMENT OF DISP.         8.070E-06   AT NODE      10279   DOF  2
   INSTANCE: CHD4                                                                            
 LARGEST CORRECTION TO DISP.       -2.711E-09   AT NODE      24961   DOF  2
   INSTANCE: CHD4                                                                            
          FORCE     EQUILIBRIUM NOT ACHIEVED WITHIN TOLERANCE.
 
	SYMMETRIC NEW DIRECT SPARSE SOLVER RUNNING ON
 	1 HOST x 1 MPI RANK PER HOST x 8 THREADS PER RANK
        NUMBER OF EQUATIONS:  124146
        NUMBER OF RHS:        1
        NUMBER OF FLOPS:      3.486e+10
        SOLVER ELAPSED TIME:  278ms

               CONVERGENCE CHECKS FOR EQUILIBRIUM ITERATION     7


 AVERAGE FORCE                       3.52       TIME AVG. FORCE        2.69    
 LARGEST SCALED RESIDUAL FORCE      2.749E-02   AT NODE      24516   DOF  3
   INSTANCE: CHD4                                                                            
  CORRESPONDING RESIDUAL FORCE      2.749E-02
 LARGEST INCREMENT OF DISP.         8.070E-06   AT NODE      10279   DOF  2
   INSTANCE: CHD4                                                                            
 LARGEST CORRECTION TO DISP.       -1.863E-09   AT NODE      24961   DOF  2
   INSTANCE: CHD4                                                                            
          FORCE     EQUILIBRIUM NOT ACHIEVED WITHIN TOLERANCE.
 
	SYMMETRIC NEW DIRECT SPARSE SOLVER RUNNING ON
 	1 HOST x 1 MPI RANK PER HOST x 8 THREADS PER RANK
        NUMBER OF EQUATIONS:  124146
        NUMBER OF RHS:        1
        NUMBER OF FLOPS:      3.486e+10
        SOLVER ELAPSED TIME:  306ms

               CONVERGENCE CHECKS FOR EQUILIBRIUM ITERATION     8


 AVERAGE FORCE                       3.52       TIME AVG. FORCE        2.69    
 LARGEST SCALED RESIDUAL FORCE     -1.800E-02   AT NODE      27819   DOF  2
   INSTANCE: CHD4                                                                            
  CORRESPONDING RESIDUAL FORCE     -1.800E-02
 LARGEST INCREMENT OF DISP.         8.070E-06   AT NODE      10279   DOF  2
   INSTANCE: CHD4                                                                            
 LARGEST CORRECTION TO DISP.       -1.320E-09   AT NODE      24961   DOF  2
   INSTANCE: CHD4                                                                            
          FORCE     EQUILIBRIUM NOT ACHIEVED WITHIN TOLERANCE.
 
	SYMMETRIC NEW DIRECT SPARSE SOLVER RUNNING ON
 	1 HOST x 1 MPI RANK PER HOST x 8 THREADS PER RANK
        NUMBER OF EQUATIONS:  124146
        NUMBER OF RHS:        1
        NUMBER OF FLOPS:      3.486e+10
        SOLVER ELAPSED TIME:  304ms

               CONVERGENCE CHECKS FOR EQUILIBRIUM ITERATION     9


 AVERAGE FORCE                       3.52       TIME AVG. FORCE        2.69    
 LARGEST SCALED RESIDUAL FORCE      1.278E-02   AT NODE      24516   DOF  3
   INSTANCE: CHD4                                                                            
  CORRESPONDING RESIDUAL FORCE      1.278E-02
 LARGEST INCREMENT OF DISP.         8.070E-06   AT NODE      10279   DOF  2
   INSTANCE: CHD4                                                                            
 LARGEST CORRECTION TO DISP.       -9.091E-10   AT NODE      24961   DOF  2
   INSTANCE: CHD4                                                                            
          THE FORCE     EQUILIBRIUM EQUATIONS HAVE CONVERGED

 ITERATION SUMMARY FOR THE INCREMENT:   9 TOTAL ITERATIONS, OF WHICH
   0 ARE SEVERE DISCONTINUITY ITERATIONS AND  9 ARE EQUILIBRIUM ITERATIONS.

 TIME INCREMENT COMPLETED   5.00    ,  FRACTION OF STEP COMPLETED   1.00    
 STEP TIME COMPLETED       1.000E+03,  TOTAL TIME COMPLETED        1.000E+03


          THE ANALYSIS HAS BEEN COMPLETED



     ANALYSIS SUMMARY:
     TOTAL OF        200  INCREMENTS
                       0  CUTBACKS IN AUTOMATIC INCREMENTATION
                     718  ITERATIONS INCLUDING CONTACT ITERATIONS IF PRESENT
                     718  PASSES THROUGH THE EQUATION SOLVER OF WHICH 
                     718  INVOLVE MATRIX DECOMPOSITION, INCLUDING
                       0  DECOMPOSITION(S) OF THE MASS MATRIX
                       1  REORDERING OF EQUATIONS TO MINIMIZE WAVEFRONT
                       0  ADDITIONAL RESIDUAL EVALUATIONS FOR LINE SEARCHES
                       0  ADDITIONAL OPERATOR EVALUATIONS FOR LINE SEARCHES
                       4  WARNING MESSAGES DURING USER INPUT PROCESSING
                       0  WARNING MESSAGES DURING ANALYSIS
                       0  ANALYSIS WARNINGS ARE NUMERICAL PROBLEM MESSAGES
                       0  ANALYSIS WARNINGS ARE NEGATIVE EIGENVALUE MESSAGES
                       0  ERROR MESSAGES



     JOB TIME SUMMARY
       USER TIME (SEC)      =     7.62E+03
       SYSTEM TIME (SEC)    =      93.    
       TOTAL CPU TIME (SEC) =     7.71E+03
       WALLCLOCK TIME (SEC) =         1398
       MEMORY PEAK (GB)     =            0
