 Abaqus/Standard 2023.HF4                  DATE 07-Jul-2024 TIME 17:54:18
 SUMMARY OF JOB INFORMATION:
 STEP  INC ATT SEVERE EQUIL TOTAL  TOTAL      STEP       INC OF       DOF    IF
               DISCON ITERS ITERS  TIME/    TIME/LPF    TIME/LPF    MONITOR RIKS
               ITERS               FREQ
   1     1   1U    0     2     2  0.00       0.00       5.000     
   1     1   2U    0     2     2  0.00       0.00       1.250     
                          
 THE ANALYSIS HAS NOT BEEN COMPLETED
