1

   Abaqus 2023.HF4                                  Date 13-Aug-2024   Time 16:18:11
   For use by AALTO UNIVERSITY under license from Dassault Systemes or its subsidiary.

                                                                                 
                                                                                 
 STEP    1     INCREMENT     1     STEP TIME    0.00    


                        S T E P       1     D Y N A M I C   A N A L Y S I S - I M P L I C I T  I N T E G R A T I O N


                                                                                          

          DYNAMIC APPLICATION PACKED SCHEME IS                 TRANSIENT FIDELITY  
          HILBER-HUGHES-TAYLOR (HHT) TIME INTEGRATOR IS USED

          FIXED TIME INCREMENTS
          TIME INCREMENT IS                                    1.000E-07
          TIME PERIOD IS                                       1.000E-04

          HILBER-HUGHES-TAYLOR METHOD PARAMETERS:  ALPHA   IS  -5.000000E-02
                                                   BETA    IS   0.275625    
                                                   GAMMA   IS   0.550000    
          SINGULAR MASS TREATMENT TYPE IS                     ERROR
          CONSERVATIVE TIME INCREMENTATION IS USED
          STEP AMPLITUDE IS                                    STEP

 CONVERGENCE TOLERANCE PARAMETERS FOR FORCE    
     CRITERION FOR RESIDUAL FORCE     FOR A NONLINEAR PROBLEM          5.000E-03
     CRITERION FOR DISP.    CORRECTION IN A NONLINEAR PROBLEM          1.000E-02
     INITIAL VALUE OF TIME AVERAGE FORCE                               1.000E-02
     AVERAGE FORCE     IS TIME AVERAGE FORCE    
     ALTERNATE CRIT. FOR RESIDUAL FORCE     FOR A NONLINEAR PROBLEM    2.000E-02
     CRITERION FOR ZERO FORCE     RELATIVE TO TIME AVRG. FORCE         1.000E-05
     CRITERION FOR RESIDUAL FORCE     WHEN THERE IS ZERO FLUX          1.000E-05
     CRITERION FOR DISP.    CORRECTION WHEN THERE IS ZERO FLUX         1.000E-03
     CRITERION FOR RESIDUAL FORCE     FOR A LINEAR INCREMENT           1.000E-08
     FIELD CONVERSION RATIO                                             1.00    
     CRITERION FOR ZERO FORCE     REL. TO TIME AVRG. MAX. FORCE        1.000E-05
     CRITERION FOR ZERO DISP.    RELATIVE TO CHARACTERISTIC LENGTH     1.000E-08

 CONVERGENCE TOLERANCE PARAMETERS FOR MOMENT   
     CRITERION FOR RESIDUAL MOMENT    FOR A NONLINEAR PROBLEM          5.000E-03
     CRITERION FOR ROTATION CORRECTION IN A NONLINEAR PROBLEM          1.000E-02
     INITIAL VALUE OF TIME AVERAGE MOMENT                              1.000E-02
     AVERAGE MOMENT    IS TIME AVERAGE MOMENT   
     ALTERNATE CRIT. FOR RESIDUAL MOMENT    FOR A NONLINEAR PROBLEM    2.000E-02
     CRITERION FOR ZERO MOMENT    RELATIVE TO TIME AVRG. MOMENT        1.000E-05
     CRITERION FOR RESIDUAL MOMENT    WHEN THERE IS ZERO FLUX          1.000E-05
     CRITERION FOR ROTATION CORRECTION WHEN THERE IS ZERO FLUX         1.000E-03
     CRITERION FOR RESIDUAL MOMENT    FOR A LINEAR INCREMENT           1.000E-08
     FIELD CONVERSION RATIO                                             1.00    
     CRITERION FOR ZERO MOMENT    REL. TO TIME AVRG. MAX. MOMENT       1.000E-05

     VOLUMETRIC STRAIN COMPATIBILITY TOLERANCE FOR HYBRID SOLIDS       1.000E-05
     AXIAL STRAIN COMPATIBILITY TOLERANCE FOR HYBRID BEAMS             1.000E-05
     TRANS. SHEAR STRAIN COMPATIBILITY TOLERANCE FOR HYBRID BEAMS      1.000E-05
     SOFT CONTACT CONSTRAINT COMPATIBILITY TOLERANCE FOR P>P0          5.000E-03
     SOFT CONTACT CONSTRAINT COMPATIBILITY TOLERANCE FOR P=0.0         0.100    
     CONTACT FORCE ERROR TOLERANCE FOR CONVERT SDI=YES                 1.00    
     DISPLACEMENT COMPATIBILITY TOLERANCE FOR DCOUP ELEMENTS           1.000E-05
     ROTATION COMPATIBILITY TOLERANCE FOR DCOUP ELEMENTS               1.000E-05

 EQUILIBRIUM WILL BE CHECKED FOR SEVERE DISCONTINUITY ITERATIONS

 ITERATION CONTROL PARAMETERS:
     FIRST EQUILIBRIUM ITERATION FOR CONSECUTIVE DIVERGENCE CHECK              4
     EQUILIBRIUM ITERATION AFTER WHICH ALTERNATE RESIDUAL IS USED              9
     MAXIMUM EQUILIBRIUM ITERATIONS ALLOWED                                   16
     MAXIMUM ITERATIONS FOR SEVERE DISCONTINUITIES                            12
     GLOBAL STABILIZATION CONTROL IS NOT USED

          PRINT OF INCREMENT NUMBER, TIME, ETC., EVERY    1  INCREMENTS

     THE MAXIMUM NUMBER OF INCREMENTS IN THIS STEP IS                    1000

     VELOCITY-BASED PARABOLIC EXTRAPOLATION WILL BE USED

     CHARACTERISTIC ELEMENT LENGTH     1.974E-03

     DETAILS REGARDING ACTUAL SOLUTION WAVEFRONT REQUESTED

     DETAILED OUTPUT OF DIAGNOSTICS TO DATABASE REQUESTED

     PRINT OF INCREMENT NUMBER, TIME, ETC., TO THE MESSAGE FILE EVERY     1  INCREMENTS

     ELEMENT OPERATIONS WILL BE CARRIED OUT IN PARALLEL USING   2 THREADS ON 1 DOMAIN

     PARALLEL CONTACT TRACKING ENABLED


     COLLECTING MODEL CONSTRAINT INFORMATION FOR OVERCONSTRAINT CHECKS

     COLLECTING STEP CONSTRAINT INFORMATION FOR OVERCONSTRAINT CHECKS
 
	REGULARIZED SYMMETRIC DIRECT SPARSE SOLVER RUNNING ON
 	1 HOST x 1 MPI RANK PER HOST x 2 THREADS PER RANK
        NUMBER OF EQUATIONS:  61376
        NUMBER OF RHS:        1
        NUMBER OF FLOPS:      4.311e+10
        SOLVER ELAPSED TIME:  2.4s
 
	REGULARIZED SYMMETRIC DIRECT SPARSE SOLVER RUNNING ON
 	1 HOST x 1 MPI RANK PER HOST x 2 THREADS PER RANK
        NUMBER OF EQUATIONS:  61376
        NUMBER OF RHS:        1
        NUMBER OF FLOPS:      4.311e+10
        SOLVER ELAPSED TIME:  2.0s


  INCREMENT     1 STARTS. ATTEMPT NUMBER  1, TIME INCREMENT  1.000E-07
 
     INITIAL ELEMENT LOAD BALANCE
            DOMAIN    1     THREAD    NUMBER OF ELEMENTS
                              1            19272
                              2            19728
 
	SYMMETRIC DIRECT SPARSE SOLVER RUNNING ON
 	1 HOST x 1 MPI RANK PER HOST x 2 THREADS PER RANK
        NUMBER OF EQUATIONS:  61376
        NUMBER OF RHS:        1
        NUMBER OF FLOPS:      4.311e+10
        SOLVER ELAPSED TIME:  1.9s

               CONVERGENCE CHECKS FOR EQUILIBRIUM ITERATION     1


 AVERAGE FORCE                      0.116       TIME AVG. FORCE       0.116    
 LARGEST SCALED RESIDUAL FORCE     -1.099E-14   AT NODE       2251   DOF  2
   INSTANCE: BLOCK-1                                                                         
  CORRESPONDING RESIDUAL FORCE     -1.099E-14
 LARGEST INCREMENT OF DISP.        -2.003E-09   AT NODE      14256   DOF  2
   INSTANCE: BLOCK-1                                                                         
 LARGEST CORRECTION TO DISP.       -2.003E-09   AT NODE      14256   DOF  2
   INSTANCE: BLOCK-1                                                                         
          THE FORCE     EQUILIBRIUM RESPONSE WAS LINEAR IN THIS INCREMENT

 AVERAGE MOMENT                      0.00       TIME AVG. MOMENT      1.000E-02
 ALL MOMENT    RESIDUALS ARE ZERO
 ALL ROTATION INCREMENTS ARE ZERO
 ALL CORRECTION TO ROTATION ARE ZERO
          THERE IS ZERO MOMENT    EVERYWHERE

 ITERATION SUMMARY FOR THE INCREMENT:   1 TOTAL ITERATIONS, OF WHICH
   0 ARE SEVERE DISCONTINUITY ITERATIONS AND  1 ARE EQUILIBRIUM ITERATIONS.

 TIME INCREMENT COMPLETED  1.000E-07,  FRACTION OF STEP COMPLETED  1.000E-03
 STEP TIME COMPLETED       1.000E-07,  TOTAL TIME COMPLETED        1.000E-07


  INCREMENT     2 STARTS. ATTEMPT NUMBER  1, TIME INCREMENT  1.000E-07
 
	SYMMETRIC DIRECT SPARSE SOLVER RUNNING ON
 	1 HOST x 1 MPI RANK PER HOST x 2 THREADS PER RANK
        NUMBER OF EQUATIONS:  61376
        NUMBER OF RHS:        1
        NUMBER OF FLOPS:      4.311e+10
        SOLVER ELAPSED TIME:  1.9s

               CONVERGENCE CHECKS FOR EQUILIBRIUM ITERATION     1


 AVERAGE FORCE                      0.114       TIME AVG. FORCE       0.115    
 LARGEST SCALED RESIDUAL FORCE     -5.884E-15   AT NODE       2252   DOF  2
   INSTANCE: BLOCK-1                                                                         
  CORRESPONDING RESIDUAL FORCE     -5.884E-15
 LARGEST INCREMENT OF DISP.        -5.869E-09   AT NODE      14256   DOF  2
   INSTANCE: BLOCK-1                                                                         
 LARGEST CORRECTION TO DISP.        1.420E-10   AT NODE       6750   DOF  2
   INSTANCE: BLOCK-1                                                                         
          THE FORCE     EQUILIBRIUM RESPONSE WAS LINEAR IN THIS INCREMENT

 AVERAGE MOMENT                      0.00       TIME AVG. MOMENT      1.000E-02
 ALL MOMENT    RESIDUALS ARE ZERO
 ALL ROTATION INCREMENTS ARE ZERO
 ALL CORRECTION TO ROTATION ARE ZERO
          THERE IS ZERO MOMENT    EVERYWHERE

 ITERATION SUMMARY FOR THE INCREMENT:   1 TOTAL ITERATIONS, OF WHICH
   0 ARE SEVERE DISCONTINUITY ITERATIONS AND  1 ARE EQUILIBRIUM ITERATIONS.

 TIME INCREMENT COMPLETED  1.000E-07,  FRACTION OF STEP COMPLETED  2.000E-03
 STEP TIME COMPLETED       2.000E-07,  TOTAL TIME COMPLETED        2.000E-07


  INCREMENT     3 STARTS. ATTEMPT NUMBER  1, TIME INCREMENT  1.000E-07
 
	SYMMETRIC DIRECT SPARSE SOLVER RUNNING ON
 	1 HOST x 1 MPI RANK PER HOST x 2 THREADS PER RANK
        NUMBER OF EQUATIONS:  61376
        NUMBER OF RHS:        1
        NUMBER OF FLOPS:      4.311e+10
        SOLVER ELAPSED TIME:  73ms

               CONVERGENCE CHECKS FOR EQUILIBRIUM ITERATION     1


 AVERAGE FORCE                      0.109       TIME AVG. FORCE       0.113    
 LARGEST SCALED RESIDUAL FORCE      7.438E-15   AT NODE       3353   DOF  2
   INSTANCE: BLOCK-1                                                                         
  CORRESPONDING RESIDUAL FORCE      7.438E-15
 LARGEST INCREMENT OF DISP.        -9.332E-09   AT NODE      14256   DOF  2
   INSTANCE: BLOCK-1                                                                         
 LARGEST CORRECTION TO DISP.       -2.657E-10   AT NODE       7726   DOF  2
   INSTANCE: BLOCK-1                                                                         
          THE FORCE     EQUILIBRIUM RESPONSE WAS LINEAR IN THIS INCREMENT

 AVERAGE MOMENT                      0.00       TIME AVG. MOMENT      1.000E-02
 ALL MOMENT    RESIDUALS ARE ZERO
 ALL ROTATION INCREMENTS ARE ZERO
 ALL CORRECTION TO ROTATION ARE ZERO
          THERE IS ZERO MOMENT    EVERYWHERE

 ITERATION SUMMARY FOR THE INCREMENT:   1 TOTAL ITERATIONS, OF WHICH
   0 ARE SEVERE DISCONTINUITY ITERATIONS AND  1 ARE EQUILIBRIUM ITERATIONS.

 TIME INCREMENT COMPLETED  1.000E-07,  FRACTION OF STEP COMPLETED  3.000E-03
 STEP TIME COMPLETED       3.000E-07,  TOTAL TIME COMPLETED        3.000E-07


  INCREMENT     4 STARTS. ATTEMPT NUMBER  1, TIME INCREMENT  1.000E-07
 
	SYMMETRIC DIRECT SPARSE SOLVER RUNNING ON
 	1 HOST x 1 MPI RANK PER HOST x 2 THREADS PER RANK
        NUMBER OF EQUATIONS:  61376
        NUMBER OF RHS:        1
        NUMBER OF FLOPS:      4.311e+10
        SOLVER ELAPSED TIME:  72ms

               CONVERGENCE CHECKS FOR EQUILIBRIUM ITERATION     1


 AVERAGE FORCE                      0.125       TIME AVG. FORCE       0.116    
 LARGEST SCALED RESIDUAL FORCE     -1.177E-14   AT NODE       3454   DOF  2
   INSTANCE: BLOCK-1                                                                         
  CORRESPONDING RESIDUAL FORCE     -1.177E-14
 LARGEST INCREMENT OF DISP.        -1.218E-08   AT NODE      14256   DOF  2
   INSTANCE: BLOCK-1                                                                         
 LARGEST CORRECTION TO DISP.       -3.634E-10   AT NODE       6630   DOF  2
   INSTANCE: BLOCK-1                                                                         
          THE FORCE     EQUILIBRIUM RESPONSE WAS LINEAR IN THIS INCREMENT

 AVERAGE MOMENT                      0.00       TIME AVG. MOMENT      1.000E-02
 ALL MOMENT    RESIDUALS ARE ZERO
 ALL ROTATION INCREMENTS ARE ZERO
 ALL CORRECTION TO ROTATION ARE ZERO
          THERE IS ZERO MOMENT    EVERYWHERE

 ITERATION SUMMARY FOR THE INCREMENT:   1 TOTAL ITERATIONS, OF WHICH
   0 ARE SEVERE DISCONTINUITY ITERATIONS AND  1 ARE EQUILIBRIUM ITERATIONS.

 TIME INCREMENT COMPLETED  1.000E-07,  FRACTION OF STEP COMPLETED  4.000E-03
 STEP TIME COMPLETED       4.000E-07,  TOTAL TIME COMPLETED        4.000E-07


  INCREMENT     5 STARTS. ATTEMPT NUMBER  1, TIME INCREMENT  1.000E-07
 
	SYMMETRIC DIRECT SPARSE SOLVER RUNNING ON
 	1 HOST x 1 MPI RANK PER HOST x 2 THREADS PER RANK
        NUMBER OF EQUATIONS:  61376
        NUMBER OF RHS:        1
        NUMBER OF FLOPS:      4.311e+10
        SOLVER ELAPSED TIME:  89ms

               CONVERGENCE CHECKS FOR EQUILIBRIUM ITERATION     1


 AVERAGE FORCE                      0.119       TIME AVG. FORCE       0.117    
 LARGEST SCALED RESIDUAL FORCE     -1.155E-14   AT NODE      13327   DOF  2
   INSTANCE: BLOCK-1                                                                         
  CORRESPONDING RESIDUAL FORCE     -1.155E-14
 LARGEST INCREMENT OF DISP.        -1.426E-08   AT NODE      14256   DOF  2
   INSTANCE: BLOCK-1                                                                         
 LARGEST CORRECTION TO DISP.       -4.237E-10   AT NODE       7726   DOF  2
   INSTANCE: BLOCK-1                                                                         
          THE FORCE     EQUILIBRIUM RESPONSE WAS LINEAR IN THIS INCREMENT

 AVERAGE MOMENT                      0.00       TIME AVG. MOMENT      1.000E-02
 ALL MOMENT    RESIDUALS ARE ZERO
 ALL ROTATION INCREMENTS ARE ZERO
 ALL CORRECTION TO ROTATION ARE ZERO
          THERE IS ZERO MOMENT    EVERYWHERE

 ITERATION SUMMARY FOR THE INCREMENT:   1 TOTAL ITERATIONS, OF WHICH
   0 ARE SEVERE DISCONTINUITY ITERATIONS AND  1 ARE EQUILIBRIUM ITERATIONS.

 TIME INCREMENT COMPLETED  1.000E-07,  FRACTION OF STEP COMPLETED  5.000E-03
 STEP TIME COMPLETED       5.000E-07,  TOTAL TIME COMPLETED        5.000E-07


  INCREMENT     6 STARTS. ATTEMPT NUMBER  1, TIME INCREMENT  1.000E-07
 
	SYMMETRIC DIRECT SPARSE SOLVER RUNNING ON
 	1 HOST x 1 MPI RANK PER HOST x 2 THREADS PER RANK
        NUMBER OF EQUATIONS:  61376
        NUMBER OF RHS:        1
        NUMBER OF FLOPS:      4.311e+10
        SOLVER ELAPSED TIME:  76ms

               CONVERGENCE CHECKS FOR EQUILIBRIUM ITERATION     1


 AVERAGE FORCE                      0.138       TIME AVG. FORCE       0.120    
 LARGEST SCALED RESIDUAL FORCE      1.332E-14   AT NODE       7811   DOF  2
   INSTANCE: BLOCK-1                                                                         
  CORRESPONDING RESIDUAL FORCE      1.332E-14
 LARGEST INCREMENT OF DISP.        -1.551E-08   AT NODE      14256   DOF  2
   INSTANCE: BLOCK-1                                                                         
 LARGEST CORRECTION TO DISP.       -4.411E-10   AT NODE       7727   DOF  2
   INSTANCE: BLOCK-1                                                                         
          THE FORCE     EQUILIBRIUM RESPONSE WAS LINEAR IN THIS INCREMENT

 AVERAGE MOMENT                      0.00       TIME AVG. MOMENT      1.000E-02
 ALL MOMENT    RESIDUALS ARE ZERO
 ALL ROTATION INCREMENTS ARE ZERO
 ALL CORRECTION TO ROTATION ARE ZERO
          THERE IS ZERO MOMENT    EVERYWHERE

 ITERATION SUMMARY FOR THE INCREMENT:   1 TOTAL ITERATIONS, OF WHICH
   0 ARE SEVERE DISCONTINUITY ITERATIONS AND  1 ARE EQUILIBRIUM ITERATIONS.

 TIME INCREMENT COMPLETED  1.000E-07,  FRACTION OF STEP COMPLETED  6.000E-03
 STEP TIME COMPLETED       6.000E-07,  TOTAL TIME COMPLETED        6.000E-07


  INCREMENT     7 STARTS. ATTEMPT NUMBER  1, TIME INCREMENT  1.000E-07
 
	SYMMETRIC DIRECT SPARSE SOLVER RUNNING ON
 	1 HOST x 1 MPI RANK PER HOST x 2 THREADS PER RANK
        NUMBER OF EQUATIONS:  61376
        NUMBER OF RHS:        1
        NUMBER OF FLOPS:      4.311e+10
        SOLVER ELAPSED TIME:  108ms

               CONVERGENCE CHECKS FOR EQUILIBRIUM ITERATION     1


 AVERAGE FORCE                      0.150       TIME AVG. FORCE       0.124    
 LARGEST SCALED RESIDUAL FORCE      1.499E-14   AT NODE      12151   DOF  2
   INSTANCE: BLOCK-1                                                                         
  CORRESPONDING RESIDUAL FORCE      1.499E-14
 LARGEST INCREMENT OF DISP.        -1.596E-08   AT NODE      14256   DOF  2
   INSTANCE: BLOCK-1                                                                         
 LARGEST CORRECTION TO DISP.       -4.152E-10   AT NODE       6631   DOF  2
   INSTANCE: BLOCK-1                                                                         
          THE FORCE     EQUILIBRIUM RESPONSE WAS LINEAR IN THIS INCREMENT

 AVERAGE MOMENT                      0.00       TIME AVG. MOMENT      1.000E-02
 ALL MOMENT    RESIDUALS ARE ZERO
 ALL ROTATION INCREMENTS ARE ZERO
 ALL CORRECTION TO ROTATION ARE ZERO
          THERE IS ZERO MOMENT    EVERYWHERE

 ITERATION SUMMARY FOR THE INCREMENT:   1 TOTAL ITERATIONS, OF WHICH
   0 ARE SEVERE DISCONTINUITY ITERATIONS AND  1 ARE EQUILIBRIUM ITERATIONS.

 TIME INCREMENT COMPLETED  1.000E-07,  FRACTION OF STEP COMPLETED  7.000E-03
 STEP TIME COMPLETED       7.000E-07,  TOTAL TIME COMPLETED        7.000E-07


  INCREMENT     8 STARTS. ATTEMPT NUMBER  1, TIME INCREMENT  1.000E-07
 
	SYMMETRIC DIRECT SPARSE SOLVER RUNNING ON
 	1 HOST x 1 MPI RANK PER HOST x 2 THREADS PER RANK
        NUMBER OF EQUATIONS:  61376
        NUMBER OF RHS:        1
        NUMBER OF FLOPS:      4.311e+10
        SOLVER ELAPSED TIME:  70ms

               CONVERGENCE CHECKS FOR EQUILIBRIUM ITERATION     1


 AVERAGE FORCE                      0.150       TIME AVG. FORCE       0.128    
 LARGEST SCALED RESIDUAL FORCE     -1.465E-14   AT NODE       2286   DOF  2
   INSTANCE: BLOCK-1                                                                         
  CORRESPONDING RESIDUAL FORCE     -1.465E-14
 LARGEST INCREMENT OF DISP.        -1.572E-08   AT NODE      14254   DOF  2
   INSTANCE: BLOCK-1                                                                         
 LARGEST CORRECTION TO DISP.       -3.503E-10   AT NODE       7728   DOF  2
   INSTANCE: BLOCK-1                                                                         
          THE FORCE     EQUILIBRIUM RESPONSE WAS LINEAR IN THIS INCREMENT

 AVERAGE MOMENT                      0.00       TIME AVG. MOMENT      1.000E-02
 ALL MOMENT    RESIDUALS ARE ZERO
 ALL ROTATION INCREMENTS ARE ZERO
 ALL CORRECTION TO ROTATION ARE ZERO
          THERE IS ZERO MOMENT    EVERYWHERE

 ITERATION SUMMARY FOR THE INCREMENT:   1 TOTAL ITERATIONS, OF WHICH
   0 ARE SEVERE DISCONTINUITY ITERATIONS AND  1 ARE EQUILIBRIUM ITERATIONS.

 TIME INCREMENT COMPLETED  1.000E-07,  FRACTION OF STEP COMPLETED  8.000E-03
 STEP TIME COMPLETED       8.000E-07,  TOTAL TIME COMPLETED        8.000E-07


  INCREMENT     9 STARTS. ATTEMPT NUMBER  1, TIME INCREMENT  1.000E-07
 
	SYMMETRIC DIRECT SPARSE SOLVER RUNNING ON
 	1 HOST x 1 MPI RANK PER HOST x 2 THREADS PER RANK
        NUMBER OF EQUATIONS:  61376
        NUMBER OF RHS:        1
        NUMBER OF FLOPS:      4.311e+10
        SOLVER ELAPSED TIME:  70ms

               CONVERGENCE CHECKS FOR EQUILIBRIUM ITERATION     1


 AVERAGE FORCE                      0.166       TIME AVG. FORCE       0.132    
 LARGEST SCALED RESIDUAL FORCE      1.296E-14   AT NODE       4165   DOF  2
   INSTANCE: BLOCK-1                                                                         
  CORRESPONDING RESIDUAL FORCE      1.296E-14
 LARGEST INCREMENT OF DISP.         1.495E-08   AT NODE      14253   DOF  2
   INSTANCE: BLOCK-1                                                                         
 LARGEST CORRECTION TO DISP.        2.550E-10   AT NODE       7803   DOF  2
   INSTANCE: BLOCK-1                                                                         
          THE FORCE     EQUILIBRIUM RESPONSE WAS LINEAR IN THIS INCREMENT

 AVERAGE MOMENT                      0.00       TIME AVG. MOMENT      1.000E-02
 ALL MOMENT    RESIDUALS ARE ZERO
 ALL ROTATION INCREMENTS ARE ZERO
 ALL CORRECTION TO ROTATION ARE ZERO
          THERE IS ZERO MOMENT    EVERYWHERE

 ITERATION SUMMARY FOR THE INCREMENT:   1 TOTAL ITERATIONS, OF WHICH
   0 ARE SEVERE DISCONTINUITY ITERATIONS AND  1 ARE EQUILIBRIUM ITERATIONS.

 TIME INCREMENT COMPLETED  1.000E-07,  FRACTION OF STEP COMPLETED  9.000E-03
 STEP TIME COMPLETED       9.000E-07,  TOTAL TIME COMPLETED        9.000E-07


  INCREMENT    10 STARTS. ATTEMPT NUMBER  1, TIME INCREMENT  1.000E-07
 
	SYMMETRIC DIRECT SPARSE SOLVER RUNNING ON
 	1 HOST x 1 MPI RANK PER HOST x 2 THREADS PER RANK
        NUMBER OF EQUATIONS:  61376
        NUMBER OF RHS:        1
        NUMBER OF FLOPS:      4.311e+10
        SOLVER ELAPSED TIME:  78ms

               CONVERGENCE CHECKS FOR EQUILIBRIUM ITERATION     1


 AVERAGE FORCE                      0.182       TIME AVG. FORCE       0.137    
 LARGEST SCALED RESIDUAL FORCE     -1.436E-14   AT NODE       3288   DOF  2
   INSTANCE: BLOCK-1                                                                         
  CORRESPONDING RESIDUAL FORCE     -1.436E-14
 LARGEST INCREMENT OF DISP.         1.387E-08   AT NODE      14253   DOF  2
   INSTANCE: BLOCK-1                                                                         
 LARGEST CORRECTION TO DISP.        1.412E-10   AT NODE       6703   DOF  2
   INSTANCE: BLOCK-1                                                                         
          THE FORCE     EQUILIBRIUM RESPONSE WAS LINEAR IN THIS INCREMENT

 AVERAGE MOMENT                      0.00       TIME AVG. MOMENT      1.000E-02
 ALL MOMENT    RESIDUALS ARE ZERO
 ALL ROTATION INCREMENTS ARE ZERO
 ALL CORRECTION TO ROTATION ARE ZERO
          THERE IS ZERO MOMENT    EVERYWHERE

 ITERATION SUMMARY FOR THE INCREMENT:   1 TOTAL ITERATIONS, OF WHICH
   0 ARE SEVERE DISCONTINUITY ITERATIONS AND  1 ARE EQUILIBRIUM ITERATIONS.

 TIME INCREMENT COMPLETED  1.000E-07,  FRACTION OF STEP COMPLETED  1.000E-02
 STEP TIME COMPLETED       1.000E-06,  TOTAL TIME COMPLETED        1.000E-06


  INCREMENT    11 STARTS. ATTEMPT NUMBER  1, TIME INCREMENT  1.000E-07
 
	SYMMETRIC DIRECT SPARSE SOLVER RUNNING ON
 	1 HOST x 1 MPI RANK PER HOST x 2 THREADS PER RANK
        NUMBER OF EQUATIONS:  61376
        NUMBER OF RHS:        1
        NUMBER OF FLOPS:      4.311e+10
        SOLVER ELAPSED TIME:  82ms

               CONVERGENCE CHECKS FOR EQUILIBRIUM ITERATION     1


 AVERAGE FORCE                      0.177       TIME AVG. FORCE       0.141    
 LARGEST SCALED RESIDUAL FORCE     -2.232E-14   AT NODE       4811   DOF  2
   INSTANCE: BLOCK-1                                                                         
  CORRESPONDING RESIDUAL FORCE     -2.232E-14
 LARGEST INCREMENT OF DISP.         1.269E-08   AT NODE      14253   DOF  2
   INSTANCE: BLOCK-1                                                                         
 LARGEST CORRECTION TO DISP.        1.517E-10   AT NODE      13152   DOF  2
   INSTANCE: BLOCK-1                                                                         
          THE FORCE     EQUILIBRIUM RESPONSE WAS LINEAR IN THIS INCREMENT

 AVERAGE MOMENT                      0.00       TIME AVG. MOMENT      1.000E-02
 ALL MOMENT    RESIDUALS ARE ZERO
 ALL ROTATION INCREMENTS ARE ZERO
 ALL CORRECTION TO ROTATION ARE ZERO
          THERE IS ZERO MOMENT    EVERYWHERE

 ITERATION SUMMARY FOR THE INCREMENT:   1 TOTAL ITERATIONS, OF WHICH
   0 ARE SEVERE DISCONTINUITY ITERATIONS AND  1 ARE EQUILIBRIUM ITERATIONS.

 TIME INCREMENT COMPLETED  1.000E-07,  FRACTION OF STEP COMPLETED  1.100E-02
 STEP TIME COMPLETED       1.100E-06,  TOTAL TIME COMPLETED        1.100E-06


  INCREMENT    12 STARTS. ATTEMPT NUMBER  1, TIME INCREMENT  1.000E-07
 
	SYMMETRIC DIRECT SPARSE SOLVER RUNNING ON
 	1 HOST x 1 MPI RANK PER HOST x 2 THREADS PER RANK
        NUMBER OF EQUATIONS:  61376
        NUMBER OF RHS:        1
        NUMBER OF FLOPS:      4.311e+10
        SOLVER ELAPSED TIME:  82ms

               CONVERGENCE CHECKS FOR EQUILIBRIUM ITERATION     1


 AVERAGE FORCE                      0.182       TIME AVG. FORCE       0.144    
 LARGEST SCALED RESIDUAL FORCE      2.251E-14   AT NODE       1395   DOF  2
   INSTANCE: BLOCK-1                                                                         
  CORRESPONDING RESIDUAL FORCE      2.251E-14
 LARGEST INCREMENT OF DISP.        -1.407E-08   AT NODE      14424   DOF  2
   INSTANCE: BLOCK-1                                                                         
 LARGEST CORRECTION TO DISP.        2.133E-10   AT NODE      13143   DOF  2
   INSTANCE: BLOCK-1                                                                         
          THE FORCE     EQUILIBRIUM RESPONSE WAS LINEAR IN THIS INCREMENT

 AVERAGE MOMENT                      0.00       TIME AVG. MOMENT      1.000E-02
 ALL MOMENT    RESIDUALS ARE ZERO
 ALL ROTATION INCREMENTS ARE ZERO
 ALL CORRECTION TO ROTATION ARE ZERO
          THERE IS ZERO MOMENT    EVERYWHERE

 ITERATION SUMMARY FOR THE INCREMENT:   1 TOTAL ITERATIONS, OF WHICH
   0 ARE SEVERE DISCONTINUITY ITERATIONS AND  1 ARE EQUILIBRIUM ITERATIONS.

 TIME INCREMENT COMPLETED  1.000E-07,  FRACTION OF STEP COMPLETED  1.200E-02
 STEP TIME COMPLETED       1.200E-06,  TOTAL TIME COMPLETED        1.200E-06


  INCREMENT    13 STARTS. ATTEMPT NUMBER  1, TIME INCREMENT  1.000E-07
 
	SYMMETRIC DIRECT SPARSE SOLVER RUNNING ON
 	1 HOST x 1 MPI RANK PER HOST x 2 THREADS PER RANK
        NUMBER OF EQUATIONS:  61376
        NUMBER OF RHS:        1
        NUMBER OF FLOPS:      4.311e+10
        SOLVER ELAPSED TIME:  85ms

               CONVERGENCE CHECKS FOR EQUILIBRIUM ITERATION     1


 AVERAGE FORCE                      0.193       TIME AVG. FORCE       0.148    
 LARGEST SCALED RESIDUAL FORCE     -2.339E-14   AT NODE      10226   DOF  2
   INSTANCE: BLOCK-1                                                                         
  CORRESPONDING RESIDUAL FORCE     -2.339E-14
 LARGEST INCREMENT OF DISP.        -1.514E-08   AT NODE      14424   DOF  2
   INSTANCE: BLOCK-1                                                                         
 LARGEST CORRECTION TO DISP.        2.546E-10   AT NODE      13143   DOF  2
   INSTANCE: BLOCK-1                                                                         
          THE FORCE     EQUILIBRIUM RESPONSE WAS LINEAR IN THIS INCREMENT

 AVERAGE MOMENT                      0.00       TIME AVG. MOMENT      1.000E-02
 ALL MOMENT    RESIDUALS ARE ZERO
 ALL ROTATION INCREMENTS ARE ZERO
 ALL CORRECTION TO ROTATION ARE ZERO
          THERE IS ZERO MOMENT    EVERYWHERE

 ITERATION SUMMARY FOR THE INCREMENT:   1 TOTAL ITERATIONS, OF WHICH
   0 ARE SEVERE DISCONTINUITY ITERATIONS AND  1 ARE EQUILIBRIUM ITERATIONS.

 TIME INCREMENT COMPLETED  1.000E-07,  FRACTION OF STEP COMPLETED  1.300E-02
 STEP TIME COMPLETED       1.300E-06,  TOTAL TIME COMPLETED        1.300E-06


  INCREMENT    14 STARTS. ATTEMPT NUMBER  1, TIME INCREMENT  1.000E-07
 
	SYMMETRIC DIRECT SPARSE SOLVER RUNNING ON
 	1 HOST x 1 MPI RANK PER HOST x 2 THREADS PER RANK
        NUMBER OF EQUATIONS:  61376
        NUMBER OF RHS:        1
        NUMBER OF FLOPS:      4.311e+10
        SOLVER ELAPSED TIME:  89ms

               CONVERGENCE CHECKS FOR EQUILIBRIUM ITERATION     1


 AVERAGE FORCE                      0.194       TIME AVG. FORCE       0.151    
 LARGEST SCALED RESIDUAL FORCE      2.380E-14   AT NODE       6450   DOF  2
   INSTANCE: BLOCK-1                                                                         
  CORRESPONDING RESIDUAL FORCE      2.380E-14
 LARGEST INCREMENT OF DISP.        -1.575E-08   AT NODE      14424   DOF  2
   INSTANCE: BLOCK-1                                                                         
 LARGEST CORRECTION TO DISP.       -2.691E-10   AT NODE      12463   DOF  2
   INSTANCE: BLOCK-1                                                                         
          THE FORCE     EQUILIBRIUM RESPONSE WAS LINEAR IN THIS INCREMENT

 AVERAGE MOMENT                      0.00       TIME AVG. MOMENT      1.000E-02
 ALL MOMENT    RESIDUALS ARE ZERO
 ALL ROTATION INCREMENTS ARE ZERO
 ALL CORRECTION TO ROTATION ARE ZERO
          THERE IS ZERO MOMENT    EVERYWHERE

 ITERATION SUMMARY FOR THE INCREMENT:   1 TOTAL ITERATIONS, OF WHICH
   0 ARE SEVERE DISCONTINUITY ITERATIONS AND  1 ARE EQUILIBRIUM ITERATIONS.

 TIME INCREMENT COMPLETED  1.000E-07,  FRACTION OF STEP COMPLETED  1.400E-02
 STEP TIME COMPLETED       1.400E-06,  TOTAL TIME COMPLETED        1.400E-06


  INCREMENT    15 STARTS. ATTEMPT NUMBER  1, TIME INCREMENT  1.000E-07
 
	SYMMETRIC DIRECT SPARSE SOLVER RUNNING ON
 	1 HOST x 1 MPI RANK PER HOST x 2 THREADS PER RANK
        NUMBER OF EQUATIONS:  61376
        NUMBER OF RHS:        1
        NUMBER OF FLOPS:      4.311e+10
        SOLVER ELAPSED TIME:  89ms

               CONVERGENCE CHECKS FOR EQUILIBRIUM ITERATION     1


 AVERAGE FORCE                      0.190       TIME AVG. FORCE       0.154    
 LARGEST SCALED RESIDUAL FORCE      2.311E-14   AT NODE       5922   DOF  2
   INSTANCE: BLOCK-1                                                                         
  CORRESPONDING RESIDUAL FORCE      2.311E-14
 LARGEST INCREMENT OF DISP.        -1.590E-08   AT NODE      14366   DOF  2
   INSTANCE: BLOCK-1                                                                         
 LARGEST CORRECTION TO DISP.        2.646E-10   AT NODE      12109   DOF  2
   INSTANCE: BLOCK-1                                                                         
          THE FORCE     EQUILIBRIUM RESPONSE WAS LINEAR IN THIS INCREMENT

 AVERAGE MOMENT                      0.00       TIME AVG. MOMENT      1.000E-02
 ALL MOMENT    RESIDUALS ARE ZERO
 ALL ROTATION INCREMENTS ARE ZERO
 ALL CORRECTION TO ROTATION ARE ZERO
          THERE IS ZERO MOMENT    EVERYWHERE

 ITERATION SUMMARY FOR THE INCREMENT:   1 TOTAL ITERATIONS, OF WHICH
   0 ARE SEVERE DISCONTINUITY ITERATIONS AND  1 ARE EQUILIBRIUM ITERATIONS.

 TIME INCREMENT COMPLETED  1.000E-07,  FRACTION OF STEP COMPLETED  1.500E-02
 STEP TIME COMPLETED       1.500E-06,  TOTAL TIME COMPLETED        1.500E-06


  INCREMENT    16 STARTS. ATTEMPT NUMBER  1, TIME INCREMENT  1.000E-07
 
	SYMMETRIC DIRECT SPARSE SOLVER RUNNING ON
 	1 HOST x 1 MPI RANK PER HOST x 2 THREADS PER RANK
        NUMBER OF EQUATIONS:  61376
        NUMBER OF RHS:        1
        NUMBER OF FLOPS:      4.311e+10
        SOLVER ELAPSED TIME:  68ms

               CONVERGENCE CHECKS FOR EQUILIBRIUM ITERATION     1


 AVERAGE FORCE                      0.198       TIME AVG. FORCE       0.156    
 LARGEST SCALED RESIDUAL FORCE      2.436E-14   AT NODE      12999   DOF  2
   INSTANCE: BLOCK-1                                                                         
  CORRESPONDING RESIDUAL FORCE      2.436E-14
 LARGEST INCREMENT OF DISP.        -1.564E-08   AT NODE      14366   DOF  2
   INSTANCE: BLOCK-1                                                                         
 LARGEST CORRECTION TO DISP.        2.537E-10   AT NODE      12109   DOF  2
   INSTANCE: BLOCK-1                                                                         
          THE FORCE     EQUILIBRIUM RESPONSE WAS LINEAR IN THIS INCREMENT

 AVERAGE MOMENT                      0.00       TIME AVG. MOMENT      1.000E-02
 ALL MOMENT    RESIDUALS ARE ZERO
 ALL ROTATION INCREMENTS ARE ZERO
 ALL CORRECTION TO ROTATION ARE ZERO
          THERE IS ZERO MOMENT    EVERYWHERE

 ITERATION SUMMARY FOR THE INCREMENT:   1 TOTAL ITERATIONS, OF WHICH
   0 ARE SEVERE DISCONTINUITY ITERATIONS AND  1 ARE EQUILIBRIUM ITERATIONS.

 TIME INCREMENT COMPLETED  1.000E-07,  FRACTION OF STEP COMPLETED  1.600E-02
 STEP TIME COMPLETED       1.600E-06,  TOTAL TIME COMPLETED        1.600E-06


  INCREMENT    17 STARTS. ATTEMPT NUMBER  1, TIME INCREMENT  1.000E-07
 
	SYMMETRIC DIRECT SPARSE SOLVER RUNNING ON
 	1 HOST x 1 MPI RANK PER HOST x 2 THREADS PER RANK
        NUMBER OF EQUATIONS:  61376
        NUMBER OF RHS:        1
        NUMBER OF FLOPS:      4.311e+10
        SOLVER ELAPSED TIME:  177ms

               CONVERGENCE CHECKS FOR EQUILIBRIUM ITERATION     1


 AVERAGE FORCE                      0.207       TIME AVG. FORCE       0.159    
 LARGEST SCALED RESIDUAL FORCE      2.200E-14   AT NODE       4153   DOF  2
   INSTANCE: BLOCK-1                                                                         
  CORRESPONDING RESIDUAL FORCE      2.200E-14
 LARGEST INCREMENT OF DISP.        -1.504E-08   AT NODE      14366   DOF  2
   INSTANCE: BLOCK-1                                                                         
 LARGEST CORRECTION TO DISP.        2.103E-10   AT NODE       2290   DOF  2
   INSTANCE: BLOCK-1                                                                         
          THE FORCE     EQUILIBRIUM RESPONSE WAS LINEAR IN THIS INCREMENT

 AVERAGE MOMENT                      0.00       TIME AVG. MOMENT      1.000E-02
 ALL MOMENT    RESIDUALS ARE ZERO
 ALL ROTATION INCREMENTS ARE ZERO
 ALL CORRECTION TO ROTATION ARE ZERO
          THERE IS ZERO MOMENT    EVERYWHERE

 ITERATION SUMMARY FOR THE INCREMENT:   1 TOTAL ITERATIONS, OF WHICH
   0 ARE SEVERE DISCONTINUITY ITERATIONS AND  1 ARE EQUILIBRIUM ITERATIONS.

 TIME INCREMENT COMPLETED  1.000E-07,  FRACTION OF STEP COMPLETED  1.700E-02
 STEP TIME COMPLETED       1.700E-06,  TOTAL TIME COMPLETED        1.700E-06


  INCREMENT    18 STARTS. ATTEMPT NUMBER  1, TIME INCREMENT  1.000E-07
 
	SYMMETRIC DIRECT SPARSE SOLVER RUNNING ON
 	1 HOST x 1 MPI RANK PER HOST x 2 THREADS PER RANK
        NUMBER OF EQUATIONS:  61376
        NUMBER OF RHS:        1
        NUMBER OF FLOPS:      4.311e+10
        SOLVER ELAPSED TIME:  93ms

               CONVERGENCE CHECKS FOR EQUILIBRIUM ITERATION     1


 AVERAGE FORCE                      0.206       TIME AVG. FORCE       0.162    
 LARGEST SCALED RESIDUAL FORCE     -2.214E-14   AT NODE       4845   DOF  2
   INSTANCE: BLOCK-1                                                                         
  CORRESPONDING RESIDUAL FORCE     -2.214E-14
 LARGEST INCREMENT OF DISP.        -1.433E-08   AT NODE      14425   DOF  2
   INSTANCE: BLOCK-1                                                                         
 LARGEST CORRECTION TO DISP.        1.510E-10   AT NODE      12046   DOF  2
   INSTANCE: BLOCK-1                                                                         
          THE FORCE     EQUILIBRIUM RESPONSE WAS LINEAR IN THIS INCREMENT

 AVERAGE MOMENT                      0.00       TIME AVG. MOMENT      1.000E-02
 ALL MOMENT    RESIDUALS ARE ZERO
 ALL ROTATION INCREMENTS ARE ZERO
 ALL CORRECTION TO ROTATION ARE ZERO
          THERE IS ZERO MOMENT    EVERYWHERE

 ITERATION SUMMARY FOR THE INCREMENT:   1 TOTAL ITERATIONS, OF WHICH
   0 ARE SEVERE DISCONTINUITY ITERATIONS AND  1 ARE EQUILIBRIUM ITERATIONS.

 TIME INCREMENT COMPLETED  1.000E-07,  FRACTION OF STEP COMPLETED  1.800E-02
 STEP TIME COMPLETED       1.800E-06,  TOTAL TIME COMPLETED        1.800E-06


  INCREMENT    19 STARTS. ATTEMPT NUMBER  1, TIME INCREMENT  1.000E-07
 
	SYMMETRIC DIRECT SPARSE SOLVER RUNNING ON
 	1 HOST x 1 MPI RANK PER HOST x 2 THREADS PER RANK
        NUMBER OF EQUATIONS:  61376
        NUMBER OF RHS:        1
        NUMBER OF FLOPS:      4.311e+10
        SOLVER ELAPSED TIME:  86ms

               CONVERGENCE CHECKS FOR EQUILIBRIUM ITERATION     1


 AVERAGE FORCE                      0.202       TIME AVG. FORCE       0.164    
 LARGEST SCALED RESIDUAL FORCE     -2.253E-14   AT NODE       7891   DOF  2
   INSTANCE: BLOCK-1                                                                         
  CORRESPONDING RESIDUAL FORCE     -2.253E-14
 LARGEST INCREMENT OF DISP.        -1.542E-08   AT NODE      14425   DOF  2
   INSTANCE: BLOCK-1                                                                         
 LARGEST CORRECTION TO DISP.        1.869E-10   AT NODE      12037   DOF  2
   INSTANCE: BLOCK-1                                                                         
          THE FORCE     EQUILIBRIUM RESPONSE WAS LINEAR IN THIS INCREMENT

 AVERAGE MOMENT                      0.00       TIME AVG. MOMENT      1.000E-02
 ALL MOMENT    RESIDUALS ARE ZERO
 ALL ROTATION INCREMENTS ARE ZERO
 ALL CORRECTION TO ROTATION ARE ZERO
          THERE IS ZERO MOMENT    EVERYWHERE

 ITERATION SUMMARY FOR THE INCREMENT:   1 TOTAL ITERATIONS, OF WHICH
   0 ARE SEVERE DISCONTINUITY ITERATIONS AND  1 ARE EQUILIBRIUM ITERATIONS.

 TIME INCREMENT COMPLETED  1.000E-07,  FRACTION OF STEP COMPLETED  1.900E-02
 STEP TIME COMPLETED       1.900E-06,  TOTAL TIME COMPLETED        1.900E-06


  INCREMENT    20 STARTS. ATTEMPT NUMBER  1, TIME INCREMENT  1.000E-07
 
	SYMMETRIC DIRECT SPARSE SOLVER RUNNING ON
 	1 HOST x 1 MPI RANK PER HOST x 2 THREADS PER RANK
        NUMBER OF EQUATIONS:  61376
        NUMBER OF RHS:        1
        NUMBER OF FLOPS:      4.311e+10
        SOLVER ELAPSED TIME:  73ms

               CONVERGENCE CHECKS FOR EQUILIBRIUM ITERATION     1


 AVERAGE FORCE                      0.209       TIME AVG. FORCE       0.166    
 LARGEST SCALED RESIDUAL FORCE      2.171E-14   AT NODE      11929   DOF  2
   INSTANCE: BLOCK-1                                                                         
  CORRESPONDING RESIDUAL FORCE      2.171E-14
 LARGEST INCREMENT OF DISP.        -1.613E-08   AT NODE      14425   DOF  2
   INSTANCE: BLOCK-1                                                                         
 LARGEST CORRECTION TO DISP.        2.080E-10   AT NODE      12037   DOF  2
   INSTANCE: BLOCK-1                                                                         
          THE FORCE     EQUILIBRIUM RESPONSE WAS LINEAR IN THIS INCREMENT

 AVERAGE MOMENT                      0.00       TIME AVG. MOMENT      1.000E-02
 ALL MOMENT    RESIDUALS ARE ZERO
 ALL ROTATION INCREMENTS ARE ZERO
 ALL CORRECTION TO ROTATION ARE ZERO
          THERE IS ZERO MOMENT    EVERYWHERE

 ITERATION SUMMARY FOR THE INCREMENT:   1 TOTAL ITERATIONS, OF WHICH
   0 ARE SEVERE DISCONTINUITY ITERATIONS AND  1 ARE EQUILIBRIUM ITERATIONS.

 TIME INCREMENT COMPLETED  1.000E-07,  FRACTION OF STEP COMPLETED  2.000E-02
 STEP TIME COMPLETED       2.000E-06,  TOTAL TIME COMPLETED        2.000E-06


  INCREMENT    21 STARTS. ATTEMPT NUMBER  1, TIME INCREMENT  1.000E-07
 
	SYMMETRIC DIRECT SPARSE SOLVER RUNNING ON
 	1 HOST x 1 MPI RANK PER HOST x 2 THREADS PER RANK
        NUMBER OF EQUATIONS:  61376
        NUMBER OF RHS:        1
        NUMBER OF FLOPS:      4.311e+10
        SOLVER ELAPSED TIME:  84ms

               CONVERGENCE CHECKS FOR EQUILIBRIUM ITERATION     1


 AVERAGE FORCE                      0.218       TIME AVG. FORCE       0.169    
 LARGEST SCALED RESIDUAL FORCE      2.163E-14   AT NODE      12908   DOF  2
   INSTANCE: BLOCK-1                                                                         
  CORRESPONDING RESIDUAL FORCE      2.163E-14
 LARGEST INCREMENT OF DISP.        -1.644E-08   AT NODE      14425   DOF  2
   INSTANCE: BLOCK-1                                                                         
 LARGEST CORRECTION TO DISP.        2.105E-10   AT NODE      12037   DOF  2
   INSTANCE: BLOCK-1                                                                         
          THE FORCE     EQUILIBRIUM RESPONSE WAS LINEAR IN THIS INCREMENT

 AVERAGE MOMENT                      0.00       TIME AVG. MOMENT      1.000E-02
 ALL MOMENT    RESIDUALS ARE ZERO
 ALL ROTATION INCREMENTS ARE ZERO
 ALL CORRECTION TO ROTATION ARE ZERO
          THERE IS ZERO MOMENT    EVERYWHERE

 ITERATION SUMMARY FOR THE INCREMENT:   1 TOTAL ITERATIONS, OF WHICH
   0 ARE SEVERE DISCONTINUITY ITERATIONS AND  1 ARE EQUILIBRIUM ITERATIONS.

 TIME INCREMENT COMPLETED  1.000E-07,  FRACTION OF STEP COMPLETED  2.100E-02
 STEP TIME COMPLETED       2.100E-06,  TOTAL TIME COMPLETED        2.100E-06


  INCREMENT    22 STARTS. ATTEMPT NUMBER  1, TIME INCREMENT  1.000E-07
 
	SYMMETRIC DIRECT SPARSE SOLVER RUNNING ON
 	1 HOST x 1 MPI RANK PER HOST x 2 THREADS PER RANK
        NUMBER OF EQUATIONS:  61376
        NUMBER OF RHS:        1
        NUMBER OF FLOPS:      4.311e+10
        SOLVER ELAPSED TIME:  82ms

               CONVERGENCE CHECKS FOR EQUILIBRIUM ITERATION     1


 AVERAGE FORCE                      0.217       TIME AVG. FORCE       0.171    
 LARGEST SCALED RESIDUAL FORCE      2.288E-14   AT NODE      12392   DOF  2
   INSTANCE: BLOCK-1                                                                         
  CORRESPONDING RESIDUAL FORCE      2.288E-14
 LARGEST INCREMENT OF DISP.        -1.635E-08   AT NODE      14365   DOF  2
   INSTANCE: BLOCK-1                                                                         
 LARGEST CORRECTION TO DISP.        2.087E-10   AT NODE      12472   DOF  2
   INSTANCE: BLOCK-1                                                                         
          THE FORCE     EQUILIBRIUM RESPONSE WAS LINEAR IN THIS INCREMENT

 AVERAGE MOMENT                      0.00       TIME AVG. MOMENT      1.000E-02
 ALL MOMENT    RESIDUALS ARE ZERO
 ALL ROTATION INCREMENTS ARE ZERO
 ALL CORRECTION TO ROTATION ARE ZERO
          THERE IS ZERO MOMENT    EVERYWHERE

 ITERATION SUMMARY FOR THE INCREMENT:   1 TOTAL ITERATIONS, OF WHICH
   0 ARE SEVERE DISCONTINUITY ITERATIONS AND  1 ARE EQUILIBRIUM ITERATIONS.

 TIME INCREMENT COMPLETED  1.000E-07,  FRACTION OF STEP COMPLETED  2.200E-02
 STEP TIME COMPLETED       2.200E-06,  TOTAL TIME COMPLETED        2.200E-06


  INCREMENT    23 STARTS. ATTEMPT NUMBER  1, TIME INCREMENT  1.000E-07
 
	SYMMETRIC DIRECT SPARSE SOLVER RUNNING ON
 	1 HOST x 1 MPI RANK PER HOST x 2 THREADS PER RANK
        NUMBER OF EQUATIONS:  61376
        NUMBER OF RHS:        1
        NUMBER OF FLOPS:      4.311e+10
        SOLVER ELAPSED TIME:  74ms

               CONVERGENCE CHECKS FOR EQUILIBRIUM ITERATION     1


 AVERAGE FORCE                      0.214       TIME AVG. FORCE       0.173    
 LARGEST SCALED RESIDUAL FORCE     -2.228E-14   AT NODE       7936   DOF  2
   INSTANCE: BLOCK-1                                                                         
  CORRESPONDING RESIDUAL FORCE     -2.228E-14
 LARGEST INCREMENT OF DISP.        -1.588E-08   AT NODE      14365   DOF  2
   INSTANCE: BLOCK-1                                                                         
 LARGEST CORRECTION TO DISP.        2.288E-10   AT NODE      12463   DOF  2
   INSTANCE: BLOCK-1                                                                         
          THE FORCE     EQUILIBRIUM RESPONSE WAS LINEAR IN THIS INCREMENT

 AVERAGE MOMENT                      0.00       TIME AVG. MOMENT      1.000E-02
 ALL MOMENT    RESIDUALS ARE ZERO
 ALL ROTATION INCREMENTS ARE ZERO
 ALL CORRECTION TO ROTATION ARE ZERO
          THERE IS ZERO MOMENT    EVERYWHERE

 ITERATION SUMMARY FOR THE INCREMENT:   1 TOTAL ITERATIONS, OF WHICH
   0 ARE SEVERE DISCONTINUITY ITERATIONS AND  1 ARE EQUILIBRIUM ITERATIONS.

 TIME INCREMENT COMPLETED  1.000E-07,  FRACTION OF STEP COMPLETED  2.300E-02
 STEP TIME COMPLETED       2.300E-06,  TOTAL TIME COMPLETED        2.300E-06


  INCREMENT    24 STARTS. ATTEMPT NUMBER  1, TIME INCREMENT  1.000E-07
 
	SYMMETRIC DIRECT SPARSE SOLVER RUNNING ON
 	1 HOST x 1 MPI RANK PER HOST x 2 THREADS PER RANK
        NUMBER OF EQUATIONS:  61376
        NUMBER OF RHS:        1
        NUMBER OF FLOPS:      4.311e+10
        SOLVER ELAPSED TIME:  70ms

               CONVERGENCE CHECKS FOR EQUILIBRIUM ITERATION     1


 AVERAGE FORCE                      0.221       TIME AVG. FORCE       0.175    
 LARGEST SCALED RESIDUAL FORCE      2.128E-14   AT NODE       7891   DOF  2
   INSTANCE: BLOCK-1                                                                         
  CORRESPONDING RESIDUAL FORCE      2.128E-14
 LARGEST INCREMENT OF DISP.        -1.511E-08   AT NODE        117   DOF  2
   INSTANCE: BLOCK-1                                                                         
 LARGEST CORRECTION TO DISP.        2.216E-10   AT NODE      12503   DOF  2
   INSTANCE: BLOCK-1                                                                         
          THE FORCE     EQUILIBRIUM RESPONSE WAS LINEAR IN THIS INCREMENT

 AVERAGE MOMENT                      0.00       TIME AVG. MOMENT      1.000E-02
 ALL MOMENT    RESIDUALS ARE ZERO
 ALL ROTATION INCREMENTS ARE ZERO
 ALL CORRECTION TO ROTATION ARE ZERO
          THERE IS ZERO MOMENT    EVERYWHERE

 ITERATION SUMMARY FOR THE INCREMENT:   1 TOTAL ITERATIONS, OF WHICH
   0 ARE SEVERE DISCONTINUITY ITERATIONS AND  1 ARE EQUILIBRIUM ITERATIONS.

 TIME INCREMENT COMPLETED  1.000E-07,  FRACTION OF STEP COMPLETED  2.400E-02
 STEP TIME COMPLETED       2.400E-06,  TOTAL TIME COMPLETED        2.400E-06


  INCREMENT    25 STARTS. ATTEMPT NUMBER  1, TIME INCREMENT  1.000E-07
 
	SYMMETRIC DIRECT SPARSE SOLVER RUNNING ON
 	1 HOST x 1 MPI RANK PER HOST x 2 THREADS PER RANK
        NUMBER OF EQUATIONS:  61376
        NUMBER OF RHS:        1
        NUMBER OF FLOPS:      4.311e+10
        SOLVER ELAPSED TIME:  64ms

               CONVERGENCE CHECKS FOR EQUILIBRIUM ITERATION     1


 AVERAGE FORCE                      0.227       TIME AVG. FORCE       0.177    
 LARGEST SCALED RESIDUAL FORCE     -2.225E-14   AT NODE      13628   DOF  2
   INSTANCE: BLOCK-1                                                                         
  CORRESPONDING RESIDUAL FORCE     -2.225E-14
 LARGEST INCREMENT OF DISP.        -1.567E-08   AT NODE      14426   DOF  2
   INSTANCE: BLOCK-1                                                                         
 LARGEST CORRECTION TO DISP.        1.890E-10   AT NODE      12503   DOF  2
   INSTANCE: BLOCK-1                                                                         
          THE FORCE     EQUILIBRIUM RESPONSE WAS LINEAR IN THIS INCREMENT

 AVERAGE MOMENT                      0.00       TIME AVG. MOMENT      1.000E-02
 ALL MOMENT    RESIDUALS ARE ZERO
 ALL ROTATION INCREMENTS ARE ZERO
 ALL CORRECTION TO ROTATION ARE ZERO
          THERE IS ZERO MOMENT    EVERYWHERE

 ITERATION SUMMARY FOR THE INCREMENT:   1 TOTAL ITERATIONS, OF WHICH
   0 ARE SEVERE DISCONTINUITY ITERATIONS AND  1 ARE EQUILIBRIUM ITERATIONS.

 TIME INCREMENT COMPLETED  1.000E-07,  FRACTION OF STEP COMPLETED  2.500E-02
 STEP TIME COMPLETED       2.500E-06,  TOTAL TIME COMPLETED        2.500E-06


  INCREMENT    26 STARTS. ATTEMPT NUMBER  1, TIME INCREMENT  1.000E-07
 
	SYMMETRIC DIRECT SPARSE SOLVER RUNNING ON
 	1 HOST x 1 MPI RANK PER HOST x 2 THREADS PER RANK
        NUMBER OF EQUATIONS:  61376
        NUMBER OF RHS:        1
        NUMBER OF FLOPS:      4.311e+10
        SOLVER ELAPSED TIME:  69ms

               CONVERGENCE CHECKS FOR EQUILIBRIUM ITERATION     1


 AVERAGE FORCE                      0.234       TIME AVG. FORCE       0.179    
 LARGEST SCALED RESIDUAL FORCE     -2.239E-14   AT NODE       9114   DOF  2
   INSTANCE: BLOCK-1                                                                         
  CORRESPONDING RESIDUAL FORCE     -2.239E-14
 LARGEST INCREMENT OF DISP.        -1.638E-08   AT NODE      14426   DOF  2
   INSTANCE: BLOCK-1                                                                         
 LARGEST CORRECTION TO DISP.        1.721E-10   AT NODE      10931   DOF  2
   INSTANCE: BLOCK-1                                                                         
          THE FORCE     EQUILIBRIUM RESPONSE WAS LINEAR IN THIS INCREMENT

 AVERAGE MOMENT                      0.00       TIME AVG. MOMENT      1.000E-02
 ALL MOMENT    RESIDUALS ARE ZERO
 ALL ROTATION INCREMENTS ARE ZERO
 ALL CORRECTION TO ROTATION ARE ZERO
          THERE IS ZERO MOMENT    EVERYWHERE

 ITERATION SUMMARY FOR THE INCREMENT:   1 TOTAL ITERATIONS, OF WHICH
   0 ARE SEVERE DISCONTINUITY ITERATIONS AND  1 ARE EQUILIBRIUM ITERATIONS.

 TIME INCREMENT COMPLETED  1.000E-07,  FRACTION OF STEP COMPLETED  2.600E-02
 STEP TIME COMPLETED       2.600E-06,  TOTAL TIME COMPLETED        2.600E-06


  INCREMENT    27 STARTS. ATTEMPT NUMBER  1, TIME INCREMENT  1.000E-07
 
	SYMMETRIC DIRECT SPARSE SOLVER RUNNING ON
 	1 HOST x 1 MPI RANK PER HOST x 2 THREADS PER RANK
        NUMBER OF EQUATIONS:  61376
        NUMBER OF RHS:        1
        NUMBER OF FLOPS:      4.311e+10
        SOLVER ELAPSED TIME:  60ms

               CONVERGENCE CHECKS FOR EQUILIBRIUM ITERATION     1


 AVERAGE FORCE                      0.230       TIME AVG. FORCE       0.181    
 LARGEST SCALED RESIDUAL FORCE     -2.448E-14   AT NODE       7053   DOF  2
   INSTANCE: BLOCK-1                                                                         
  CORRESPONDING RESIDUAL FORCE     -2.448E-14
 LARGEST INCREMENT OF DISP.        -1.674E-08   AT NODE      14426   DOF  2
   INSTANCE: BLOCK-1                                                                         
 LARGEST CORRECTION TO DISP.        1.841E-10   AT NODE      14426   DOF  2
   INSTANCE: BLOCK-1                                                                         
          THE FORCE     EQUILIBRIUM RESPONSE WAS LINEAR IN THIS INCREMENT

 AVERAGE MOMENT                      0.00       TIME AVG. MOMENT      1.000E-02
 ALL MOMENT    RESIDUALS ARE ZERO
 ALL ROTATION INCREMENTS ARE ZERO
 ALL CORRECTION TO ROTATION ARE ZERO
          THERE IS ZERO MOMENT    EVERYWHERE

 ITERATION SUMMARY FOR THE INCREMENT:   1 TOTAL ITERATIONS, OF WHICH
   0 ARE SEVERE DISCONTINUITY ITERATIONS AND  1 ARE EQUILIBRIUM ITERATIONS.

 TIME INCREMENT COMPLETED  1.000E-07,  FRACTION OF STEP COMPLETED  2.700E-02
 STEP TIME COMPLETED       2.700E-06,  TOTAL TIME COMPLETED        2.700E-06


  INCREMENT    28 STARTS. ATTEMPT NUMBER  1, TIME INCREMENT  1.000E-07
 
	SYMMETRIC DIRECT SPARSE SOLVER RUNNING ON
 	1 HOST x 1 MPI RANK PER HOST x 2 THREADS PER RANK
        NUMBER OF EQUATIONS:  61376
        NUMBER OF RHS:        1
        NUMBER OF FLOPS:      4.311e+10
        SOLVER ELAPSED TIME:  93ms

               CONVERGENCE CHECKS FOR EQUILIBRIUM ITERATION     1


 AVERAGE FORCE                      0.235       TIME AVG. FORCE       0.183    
 LARGEST SCALED RESIDUAL FORCE      2.184E-14   AT NODE       7456   DOF  2
   INSTANCE: BLOCK-1                                                                         
  CORRESPONDING RESIDUAL FORCE      2.184E-14
 LARGEST INCREMENT OF DISP.        -1.674E-08   AT NODE      14364   DOF  2
   INSTANCE: BLOCK-1                                                                         
 LARGEST CORRECTION TO DISP.        1.885E-10   AT NODE      14256   DOF  3
   INSTANCE: BLOCK-1                                                                         
          THE FORCE     EQUILIBRIUM RESPONSE WAS LINEAR IN THIS INCREMENT

 AVERAGE MOMENT                      0.00       TIME AVG. MOMENT      1.000E-02
 ALL MOMENT    RESIDUALS ARE ZERO
 ALL ROTATION INCREMENTS ARE ZERO
 ALL CORRECTION TO ROTATION ARE ZERO
          THERE IS ZERO MOMENT    EVERYWHERE

 ITERATION SUMMARY FOR THE INCREMENT:   1 TOTAL ITERATIONS, OF WHICH
   0 ARE SEVERE DISCONTINUITY ITERATIONS AND  1 ARE EQUILIBRIUM ITERATIONS.

 TIME INCREMENT COMPLETED  1.000E-07,  FRACTION OF STEP COMPLETED  2.800E-02
 STEP TIME COMPLETED       2.800E-06,  TOTAL TIME COMPLETED        2.800E-06


  INCREMENT    29 STARTS. ATTEMPT NUMBER  1, TIME INCREMENT  1.000E-07
 
	SYMMETRIC DIRECT SPARSE SOLVER RUNNING ON
 	1 HOST x 1 MPI RANK PER HOST x 2 THREADS PER RANK
        NUMBER OF EQUATIONS:  61376
        NUMBER OF RHS:        1
        NUMBER OF FLOPS:      4.311e+10
        SOLVER ELAPSED TIME:  69ms

               CONVERGENCE CHECKS FOR EQUILIBRIUM ITERATION     1


 AVERAGE FORCE                      0.241       TIME AVG. FORCE       0.185    
 LARGEST SCALED RESIDUAL FORCE      2.192E-14   AT NODE       7980   DOF  2
   INSTANCE: BLOCK-1                                                                         
  CORRESPONDING RESIDUAL FORCE      2.192E-14
 LARGEST INCREMENT OF DISP.        -1.638E-08   AT NODE      14364   DOF  2
   INSTANCE: BLOCK-1                                                                         
 LARGEST CORRECTION TO DISP.        1.989E-10   AT NODE      14252   DOF  3
   INSTANCE: BLOCK-1                                                                         
          THE FORCE     EQUILIBRIUM RESPONSE WAS LINEAR IN THIS INCREMENT

 AVERAGE MOMENT                      0.00       TIME AVG. MOMENT      1.000E-02
 ALL MOMENT    RESIDUALS ARE ZERO
 ALL ROTATION INCREMENTS ARE ZERO
 ALL CORRECTION TO ROTATION ARE ZERO
          THERE IS ZERO MOMENT    EVERYWHERE

 ITERATION SUMMARY FOR THE INCREMENT:   1 TOTAL ITERATIONS, OF WHICH
   0 ARE SEVERE DISCONTINUITY ITERATIONS AND  1 ARE EQUILIBRIUM ITERATIONS.

 TIME INCREMENT COMPLETED  1.000E-07,  FRACTION OF STEP COMPLETED  2.900E-02
 STEP TIME COMPLETED       2.900E-06,  TOTAL TIME COMPLETED        2.900E-06


  INCREMENT    30 STARTS. ATTEMPT NUMBER  1, TIME INCREMENT  1.000E-07
 
	SYMMETRIC DIRECT SPARSE SOLVER RUNNING ON
 	1 HOST x 1 MPI RANK PER HOST x 2 THREADS PER RANK
        NUMBER OF EQUATIONS:  61376
        NUMBER OF RHS:        1
        NUMBER OF FLOPS:      4.311e+10
        SOLVER ELAPSED TIME:  78ms

               CONVERGENCE CHECKS FOR EQUILIBRIUM ITERATION     1


 AVERAGE FORCE                      0.247       TIME AVG. FORCE       0.187    
 LARGEST SCALED RESIDUAL FORCE     -2.558E-14   AT NODE       2428   DOF  2
   INSTANCE: BLOCK-1                                                                         
  CORRESPONDING RESIDUAL FORCE     -2.558E-14
 LARGEST INCREMENT OF DISP.        -1.572E-08   AT NODE        116   DOF  2
   INSTANCE: BLOCK-1                                                                         
 LARGEST CORRECTION TO DISP.        2.000E-10   AT NODE       2600   DOF  2
   INSTANCE: BLOCK-1                                                                         
          THE FORCE     EQUILIBRIUM RESPONSE WAS LINEAR IN THIS INCREMENT

 AVERAGE MOMENT                      0.00       TIME AVG. MOMENT      1.000E-02
 ALL MOMENT    RESIDUALS ARE ZERO
 ALL ROTATION INCREMENTS ARE ZERO
 ALL CORRECTION TO ROTATION ARE ZERO
          THERE IS ZERO MOMENT    EVERYWHERE

 ITERATION SUMMARY FOR THE INCREMENT:   1 TOTAL ITERATIONS, OF WHICH
   0 ARE SEVERE DISCONTINUITY ITERATIONS AND  1 ARE EQUILIBRIUM ITERATIONS.

 TIME INCREMENT COMPLETED  1.000E-07,  FRACTION OF STEP COMPLETED  3.000E-02
 STEP TIME COMPLETED       3.000E-06,  TOTAL TIME COMPLETED        3.000E-06


  INCREMENT    31 STARTS. ATTEMPT NUMBER  1, TIME INCREMENT  1.000E-07
 
	SYMMETRIC DIRECT SPARSE SOLVER RUNNING ON
 	1 HOST x 1 MPI RANK PER HOST x 2 THREADS PER RANK
        NUMBER OF EQUATIONS:  61376
        NUMBER OF RHS:        1
        NUMBER OF FLOPS:      4.311e+10
        SOLVER ELAPSED TIME:  69ms

               CONVERGENCE CHECKS FOR EQUILIBRIUM ITERATION     1


 AVERAGE FORCE                      0.253       TIME AVG. FORCE       0.189    
 LARGEST SCALED RESIDUAL FORCE     -2.641E-14   AT NODE       3288   DOF  2
   INSTANCE: BLOCK-1                                                                         
  CORRESPONDING RESIDUAL FORCE     -2.641E-14
 LARGEST INCREMENT OF DISP.        -1.592E-08   AT NODE      14427   DOF  2
   INSTANCE: BLOCK-1                                                                         
 LARGEST CORRECTION TO DISP.       -2.083E-10   AT NODE       1512   DOF  2
   INSTANCE: BLOCK-1                                                                         
          THE FORCE     EQUILIBRIUM RESPONSE WAS LINEAR IN THIS INCREMENT

 AVERAGE MOMENT                      0.00       TIME AVG. MOMENT      1.000E-02
 ALL MOMENT    RESIDUALS ARE ZERO
 ALL ROTATION INCREMENTS ARE ZERO
 ALL CORRECTION TO ROTATION ARE ZERO
          THERE IS ZERO MOMENT    EVERYWHERE

 ITERATION SUMMARY FOR THE INCREMENT:   1 TOTAL ITERATIONS, OF WHICH
   0 ARE SEVERE DISCONTINUITY ITERATIONS AND  1 ARE EQUILIBRIUM ITERATIONS.

 TIME INCREMENT COMPLETED  1.000E-07,  FRACTION OF STEP COMPLETED  3.100E-02
 STEP TIME COMPLETED       3.100E-06,  TOTAL TIME COMPLETED        3.100E-06


  INCREMENT    32 STARTS. ATTEMPT NUMBER  1, TIME INCREMENT  1.000E-07
 
	SYMMETRIC DIRECT SPARSE SOLVER RUNNING ON
 	1 HOST x 1 MPI RANK PER HOST x 2 THREADS PER RANK
        NUMBER OF EQUATIONS:  61376
        NUMBER OF RHS:        1
        NUMBER OF FLOPS:      4.311e+10
        SOLVER ELAPSED TIME:  81ms

               CONVERGENCE CHECKS FOR EQUILIBRIUM ITERATION     1


 AVERAGE FORCE                      0.260       TIME AVG. FORCE       0.191    
 LARGEST SCALED RESIDUAL FORCE      2.461E-14   AT NODE      14122   DOF  2
   INSTANCE: BLOCK-1                                                                         
  CORRESPONDING RESIDUAL FORCE      2.461E-14
 LARGEST INCREMENT OF DISP.        -1.660E-08   AT NODE      14427   DOF  2
   INSTANCE: BLOCK-1                                                                         
 LARGEST CORRECTION TO DISP.       -1.969E-10   AT NODE      12504   DOF  2
   INSTANCE: BLOCK-1                                                                         
          THE FORCE     EQUILIBRIUM RESPONSE WAS LINEAR IN THIS INCREMENT

 AVERAGE MOMENT                      0.00       TIME AVG. MOMENT      1.000E-02
 ALL MOMENT    RESIDUALS ARE ZERO
 ALL ROTATION INCREMENTS ARE ZERO
 ALL CORRECTION TO ROTATION ARE ZERO
          THERE IS ZERO MOMENT    EVERYWHERE

 ITERATION SUMMARY FOR THE INCREMENT:   1 TOTAL ITERATIONS, OF WHICH
   0 ARE SEVERE DISCONTINUITY ITERATIONS AND  1 ARE EQUILIBRIUM ITERATIONS.

 TIME INCREMENT COMPLETED  1.000E-07,  FRACTION OF STEP COMPLETED  3.200E-02
 STEP TIME COMPLETED       3.200E-06,  TOTAL TIME COMPLETED        3.200E-06


  INCREMENT    33 STARTS. ATTEMPT NUMBER  1, TIME INCREMENT  1.000E-07
 
	SYMMETRIC DIRECT SPARSE SOLVER RUNNING ON
 	1 HOST x 1 MPI RANK PER HOST x 2 THREADS PER RANK
        NUMBER OF EQUATIONS:  61376
        NUMBER OF RHS:        1
        NUMBER OF FLOPS:      4.311e+10
        SOLVER ELAPSED TIME:  69ms

               CONVERGENCE CHECKS FOR EQUILIBRIUM ITERATION     1


 AVERAGE FORCE                      0.266       TIME AVG. FORCE       0.194    
 LARGEST SCALED RESIDUAL FORCE     -2.281E-14   AT NODE      11873   DOF  2
   INSTANCE: BLOCK-1                                                                         
  CORRESPONDING RESIDUAL FORCE     -2.281E-14
 LARGEST INCREMENT OF DISP.        -1.697E-08   AT NODE      14427   DOF  2
   INSTANCE: BLOCK-1                                                                         
 LARGEST CORRECTION TO DISP.        1.842E-10   AT NODE      12154   DOF  2
   INSTANCE: BLOCK-1                                                                         
          THE FORCE     EQUILIBRIUM RESPONSE WAS LINEAR IN THIS INCREMENT

 AVERAGE MOMENT                      0.00       TIME AVG. MOMENT      1.000E-02
 ALL MOMENT    RESIDUALS ARE ZERO
 ALL ROTATION INCREMENTS ARE ZERO
 ALL CORRECTION TO ROTATION ARE ZERO
          THERE IS ZERO MOMENT    EVERYWHERE

 ITERATION SUMMARY FOR THE INCREMENT:   1 TOTAL ITERATIONS, OF WHICH
   0 ARE SEVERE DISCONTINUITY ITERATIONS AND  1 ARE EQUILIBRIUM ITERATIONS.

 TIME INCREMENT COMPLETED  1.000E-07,  FRACTION OF STEP COMPLETED  3.300E-02
 STEP TIME COMPLETED       3.300E-06,  TOTAL TIME COMPLETED        3.300E-06


  INCREMENT    34 STARTS. ATTEMPT NUMBER  1, TIME INCREMENT  1.000E-07
 
	SYMMETRIC DIRECT SPARSE SOLVER RUNNING ON
 	1 HOST x 1 MPI RANK PER HOST x 2 THREADS PER RANK
        NUMBER OF EQUATIONS:  61376
        NUMBER OF RHS:        1
        NUMBER OF FLOPS:      4.311e+10
        SOLVER ELAPSED TIME:  93ms

               CONVERGENCE CHECKS FOR EQUILIBRIUM ITERATION     1


 AVERAGE FORCE                      0.273       TIME AVG. FORCE       0.196    
 LARGEST SCALED RESIDUAL FORCE      2.452E-14   AT NODE       3053   DOF  2
   INSTANCE: BLOCK-1                                                                         
  CORRESPONDING RESIDUAL FORCE      2.452E-14
 LARGEST INCREMENT OF DISP.        -1.700E-08   AT NODE      14363   DOF  2
   INSTANCE: BLOCK-1                                                                         
 LARGEST CORRECTION TO DISP.        1.680E-10   AT NODE      14427   DOF  2
   INSTANCE: BLOCK-1                                                                         
          THE FORCE     EQUILIBRIUM RESPONSE WAS LINEAR IN THIS INCREMENT

 AVERAGE MOMENT                      0.00       TIME AVG. MOMENT      1.000E-02
 ALL MOMENT    RESIDUALS ARE ZERO
 ALL ROTATION INCREMENTS ARE ZERO
 ALL CORRECTION TO ROTATION ARE ZERO
          THERE IS ZERO MOMENT    EVERYWHERE

 ITERATION SUMMARY FOR THE INCREMENT:   1 TOTAL ITERATIONS, OF WHICH
   0 ARE SEVERE DISCONTINUITY ITERATIONS AND  1 ARE EQUILIBRIUM ITERATIONS.

 TIME INCREMENT COMPLETED  1.000E-07,  FRACTION OF STEP COMPLETED  3.400E-02
 STEP TIME COMPLETED       3.400E-06,  TOTAL TIME COMPLETED        3.400E-06


  INCREMENT    35 STARTS. ATTEMPT NUMBER  1, TIME INCREMENT  1.000E-07
 
	SYMMETRIC DIRECT SPARSE SOLVER RUNNING ON
 	1 HOST x 1 MPI RANK PER HOST x 2 THREADS PER RANK
        NUMBER OF EQUATIONS:  61376
        NUMBER OF RHS:        1
        NUMBER OF FLOPS:      4.311e+10
        SOLVER ELAPSED TIME:  78ms

               CONVERGENCE CHECKS FOR EQUILIBRIUM ITERATION     1


 AVERAGE FORCE                      0.279       TIME AVG. FORCE       0.198    
 LARGEST SCALED RESIDUAL FORCE     -2.276E-14   AT NODE      14010   DOF  2
   INSTANCE: BLOCK-1                                                                         
  CORRESPONDING RESIDUAL FORCE     -2.276E-14
 LARGEST INCREMENT OF DISP.        -1.671E-08   AT NODE        115   DOF  2
   INSTANCE: BLOCK-1                                                                         
 LARGEST CORRECTION TO DISP.        1.585E-10   AT NODE      14363   DOF  2
   INSTANCE: BLOCK-1                                                                         
          THE FORCE     EQUILIBRIUM RESPONSE WAS LINEAR IN THIS INCREMENT

 AVERAGE MOMENT                      0.00       TIME AVG. MOMENT      1.000E-02
 ALL MOMENT    RESIDUALS ARE ZERO
 ALL ROTATION INCREMENTS ARE ZERO
 ALL CORRECTION TO ROTATION ARE ZERO
          THERE IS ZERO MOMENT    EVERYWHERE

 ITERATION SUMMARY FOR THE INCREMENT:   1 TOTAL ITERATIONS, OF WHICH
   0 ARE SEVERE DISCONTINUITY ITERATIONS AND  1 ARE EQUILIBRIUM ITERATIONS.

 TIME INCREMENT COMPLETED  1.000E-07,  FRACTION OF STEP COMPLETED  3.500E-02
 STEP TIME COMPLETED       3.500E-06,  TOTAL TIME COMPLETED        3.500E-06


  INCREMENT    36 STARTS. ATTEMPT NUMBER  1, TIME INCREMENT  1.000E-07
 
	SYMMETRIC DIRECT SPARSE SOLVER RUNNING ON
 	1 HOST x 1 MPI RANK PER HOST x 2 THREADS PER RANK
        NUMBER OF EQUATIONS:  61376
        NUMBER OF RHS:        1
        NUMBER OF FLOPS:      4.311e+10
        SOLVER ELAPSED TIME:  72ms

               CONVERGENCE CHECKS FOR EQUILIBRIUM ITERATION     1


 AVERAGE FORCE                      0.284       TIME AVG. FORCE       0.201    
 LARGEST SCALED RESIDUAL FORCE     -2.375E-14   AT NODE      11911   DOF  2
   INSTANCE: BLOCK-1                                                                         
  CORRESPONDING RESIDUAL FORCE     -2.375E-14
 LARGEST INCREMENT OF DISP.        -1.612E-08   AT NODE        115   DOF  2
   INSTANCE: BLOCK-1                                                                         
 LARGEST CORRECTION TO DISP.       -1.953E-10   AT NODE      14256   DOF  3
   INSTANCE: BLOCK-1                                                                         
          THE FORCE     EQUILIBRIUM RESPONSE WAS LINEAR IN THIS INCREMENT

 AVERAGE MOMENT                      0.00       TIME AVG. MOMENT      1.000E-02
 ALL MOMENT    RESIDUALS ARE ZERO
 ALL ROTATION INCREMENTS ARE ZERO
 ALL CORRECTION TO ROTATION ARE ZERO
          THERE IS ZERO MOMENT    EVERYWHERE

 ITERATION SUMMARY FOR THE INCREMENT:   1 TOTAL ITERATIONS, OF WHICH
   0 ARE SEVERE DISCONTINUITY ITERATIONS AND  1 ARE EQUILIBRIUM ITERATIONS.

 TIME INCREMENT COMPLETED  1.000E-07,  FRACTION OF STEP COMPLETED  3.600E-02
 STEP TIME COMPLETED       3.600E-06,  TOTAL TIME COMPLETED        3.600E-06


  INCREMENT    37 STARTS. ATTEMPT NUMBER  1, TIME INCREMENT  1.000E-07
 
	SYMMETRIC DIRECT SPARSE SOLVER RUNNING ON
 	1 HOST x 1 MPI RANK PER HOST x 2 THREADS PER RANK
        NUMBER OF EQUATIONS:  61376
        NUMBER OF RHS:        1
        NUMBER OF FLOPS:      4.311e+10
        SOLVER ELAPSED TIME:  75ms

               CONVERGENCE CHECKS FOR EQUILIBRIUM ITERATION     1


 AVERAGE FORCE                      0.290       TIME AVG. FORCE       0.203    
 LARGEST SCALED RESIDUAL FORCE      2.805E-14   AT NODE      11857   DOF  2
   INSTANCE: BLOCK-1                                                                         
  CORRESPONDING RESIDUAL FORCE      2.805E-14
 LARGEST INCREMENT OF DISP.        -1.613E-08   AT NODE      14428   DOF  2
   INSTANCE: BLOCK-1                                                                         
 LARGEST CORRECTION TO DISP.        2.218E-10   AT NODE          8   DOF  2
   INSTANCE: BLOCK-1                                                                         
          THE FORCE     EQUILIBRIUM RESPONSE WAS LINEAR IN THIS INCREMENT

 AVERAGE MOMENT                      0.00       TIME AVG. MOMENT      1.000E-02
 ALL MOMENT    RESIDUALS ARE ZERO
 ALL ROTATION INCREMENTS ARE ZERO
 ALL CORRECTION TO ROTATION ARE ZERO
          THERE IS ZERO MOMENT    EVERYWHERE

 ITERATION SUMMARY FOR THE INCREMENT:   1 TOTAL ITERATIONS, OF WHICH
   0 ARE SEVERE DISCONTINUITY ITERATIONS AND  1 ARE EQUILIBRIUM ITERATIONS.

 TIME INCREMENT COMPLETED  1.000E-07,  FRACTION OF STEP COMPLETED  3.700E-02
 STEP TIME COMPLETED       3.700E-06,  TOTAL TIME COMPLETED        3.700E-06


  INCREMENT    38 STARTS. ATTEMPT NUMBER  1, TIME INCREMENT  1.000E-07
 
	SYMMETRIC DIRECT SPARSE SOLVER RUNNING ON
 	1 HOST x 1 MPI RANK PER HOST x 2 THREADS PER RANK
        NUMBER OF EQUATIONS:  61376
        NUMBER OF RHS:        1
        NUMBER OF FLOPS:      4.311e+10
        SOLVER ELAPSED TIME:  84ms

               CONVERGENCE CHECKS FOR EQUILIBRIUM ITERATION     1


 AVERAGE FORCE                      0.296       TIME AVG. FORCE       0.206    
 LARGEST SCALED RESIDUAL FORCE     -2.500E-14   AT NODE       2655   DOF  2
   INSTANCE: BLOCK-1                                                                         
  CORRESPONDING RESIDUAL FORCE     -2.500E-14
 LARGEST INCREMENT OF DISP.        -1.676E-08   AT NODE      14428   DOF  2
   INSTANCE: BLOCK-1                                                                         
 LARGEST CORRECTION TO DISP.       -2.297E-10   AT NODE          4   DOF  2
   INSTANCE: BLOCK-1                                                                         
          THE FORCE     EQUILIBRIUM RESPONSE WAS LINEAR IN THIS INCREMENT

 AVERAGE MOMENT                      0.00       TIME AVG. MOMENT      1.000E-02
 ALL MOMENT    RESIDUALS ARE ZERO
 ALL ROTATION INCREMENTS ARE ZERO
 ALL CORRECTION TO ROTATION ARE ZERO
          THERE IS ZERO MOMENT    EVERYWHERE

 ITERATION SUMMARY FOR THE INCREMENT:   1 TOTAL ITERATIONS, OF WHICH
   0 ARE SEVERE DISCONTINUITY ITERATIONS AND  1 ARE EQUILIBRIUM ITERATIONS.

 TIME INCREMENT COMPLETED  1.000E-07,  FRACTION OF STEP COMPLETED  3.800E-02
 STEP TIME COMPLETED       3.800E-06,  TOTAL TIME COMPLETED        3.800E-06


  INCREMENT    39 STARTS. ATTEMPT NUMBER  1, TIME INCREMENT  1.000E-07
 
	SYMMETRIC DIRECT SPARSE SOLVER RUNNING ON
 	1 HOST x 1 MPI RANK PER HOST x 2 THREADS PER RANK
        NUMBER OF EQUATIONS:  61376
        NUMBER OF RHS:        1
        NUMBER OF FLOPS:      4.311e+10
        SOLVER ELAPSED TIME:  70ms

               CONVERGENCE CHECKS FOR EQUILIBRIUM ITERATION     1


 AVERAGE FORCE                      0.302       TIME AVG. FORCE       0.208    
 LARGEST SCALED RESIDUAL FORCE      2.401E-14   AT NODE       1566   DOF  2
   INSTANCE: BLOCK-1                                                                         
  CORRESPONDING RESIDUAL FORCE      2.401E-14
 LARGEST INCREMENT OF DISP.        -1.711E-08   AT NODE      14428   DOF  2
   INSTANCE: BLOCK-1                                                                         
 LARGEST CORRECTION TO DISP.        2.052E-10   AT NODE      12064   DOF  2
   INSTANCE: BLOCK-1                                                                         
          THE FORCE     EQUILIBRIUM RESPONSE WAS LINEAR IN THIS INCREMENT

 AVERAGE MOMENT                      0.00       TIME AVG. MOMENT      1.000E-02
 ALL MOMENT    RESIDUALS ARE ZERO
 ALL ROTATION INCREMENTS ARE ZERO
 ALL CORRECTION TO ROTATION ARE ZERO
          THERE IS ZERO MOMENT    EVERYWHERE

 ITERATION SUMMARY FOR THE INCREMENT:   1 TOTAL ITERATIONS, OF WHICH
   0 ARE SEVERE DISCONTINUITY ITERATIONS AND  1 ARE EQUILIBRIUM ITERATIONS.

 TIME INCREMENT COMPLETED  1.000E-07,  FRACTION OF STEP COMPLETED  3.900E-02
 STEP TIME COMPLETED       3.900E-06,  TOTAL TIME COMPLETED        3.900E-06


  INCREMENT    40 STARTS. ATTEMPT NUMBER  1, TIME INCREMENT  1.000E-07
 
	SYMMETRIC DIRECT SPARSE SOLVER RUNNING ON
 	1 HOST x 1 MPI RANK PER HOST x 2 THREADS PER RANK
        NUMBER OF EQUATIONS:  61376
        NUMBER OF RHS:        1
        NUMBER OF FLOPS:      4.311e+10
        SOLVER ELAPSED TIME:  76ms

               CONVERGENCE CHECKS FOR EQUILIBRIUM ITERATION     1


 AVERAGE FORCE                      0.309       TIME AVG. FORCE       0.211    
 LARGEST SCALED RESIDUAL FORCE      2.544E-14   AT NODE       4615   DOF  2
   INSTANCE: BLOCK-1                                                                         
  CORRESPONDING RESIDUAL FORCE      2.544E-14
 LARGEST INCREMENT OF DISP.        -1.715E-08   AT NODE      14362   DOF  2
   INSTANCE: BLOCK-1                                                                         
 LARGEST CORRECTION TO DISP.        2.027E-10   AT NODE      12062   DOF  2
   INSTANCE: BLOCK-1                                                                         
          THE FORCE     EQUILIBRIUM RESPONSE WAS LINEAR IN THIS INCREMENT

 AVERAGE MOMENT                      0.00       TIME AVG. MOMENT      1.000E-02
 ALL MOMENT    RESIDUALS ARE ZERO
 ALL ROTATION INCREMENTS ARE ZERO
 ALL CORRECTION TO ROTATION ARE ZERO
          THERE IS ZERO MOMENT    EVERYWHERE

 ITERATION SUMMARY FOR THE INCREMENT:   1 TOTAL ITERATIONS, OF WHICH
   0 ARE SEVERE DISCONTINUITY ITERATIONS AND  1 ARE EQUILIBRIUM ITERATIONS.

 TIME INCREMENT COMPLETED  1.000E-07,  FRACTION OF STEP COMPLETED  4.000E-02
 STEP TIME COMPLETED       4.000E-06,  TOTAL TIME COMPLETED        4.000E-06


  INCREMENT    41 STARTS. ATTEMPT NUMBER  1, TIME INCREMENT  1.000E-07
 
	SYMMETRIC DIRECT SPARSE SOLVER RUNNING ON
 	1 HOST x 1 MPI RANK PER HOST x 2 THREADS PER RANK
        NUMBER OF EQUATIONS:  61376
        NUMBER OF RHS:        1
        NUMBER OF FLOPS:      4.311e+10
        SOLVER ELAPSED TIME:  57ms

               CONVERGENCE CHECKS FOR EQUILIBRIUM ITERATION     1


 AVERAGE FORCE                      0.315       TIME AVG. FORCE       0.213    
 LARGEST SCALED RESIDUAL FORCE     -2.363E-14   AT NODE      12877   DOF  2
   INSTANCE: BLOCK-1                                                                         
  CORRESPONDING RESIDUAL FORCE     -2.363E-14
 LARGEST INCREMENT OF DISP.        -1.690E-08   AT NODE        114   DOF  2
   INSTANCE: BLOCK-1                                                                         
 LARGEST CORRECTION TO DISP.       -1.743E-10   AT NODE      12109   DOF  2
   INSTANCE: BLOCK-1                                                                         
          THE FORCE     EQUILIBRIUM RESPONSE WAS LINEAR IN THIS INCREMENT

 AVERAGE MOMENT                      0.00       TIME AVG. MOMENT      1.000E-02
 ALL MOMENT    RESIDUALS ARE ZERO
 ALL ROTATION INCREMENTS ARE ZERO
 ALL CORRECTION TO ROTATION ARE ZERO
          THERE IS ZERO MOMENT    EVERYWHERE

 ITERATION SUMMARY FOR THE INCREMENT:   1 TOTAL ITERATIONS, OF WHICH
   0 ARE SEVERE DISCONTINUITY ITERATIONS AND  1 ARE EQUILIBRIUM ITERATIONS.

 TIME INCREMENT COMPLETED  1.000E-07,  FRACTION OF STEP COMPLETED  4.100E-02
 STEP TIME COMPLETED       4.100E-06,  TOTAL TIME COMPLETED        4.100E-06


  INCREMENT    42 STARTS. ATTEMPT NUMBER  1, TIME INCREMENT  1.000E-07
 
	SYMMETRIC DIRECT SPARSE SOLVER RUNNING ON
 	1 HOST x 1 MPI RANK PER HOST x 2 THREADS PER RANK
        NUMBER OF EQUATIONS:  61376
        NUMBER OF RHS:        1
        NUMBER OF FLOPS:      4.311e+10
        SOLVER ELAPSED TIME:  70ms

               CONVERGENCE CHECKS FOR EQUILIBRIUM ITERATION     1


 AVERAGE FORCE                      0.322       TIME AVG. FORCE       0.216    
 LARGEST SCALED RESIDUAL FORCE     -2.340E-14   AT NODE      11416   DOF  2
   INSTANCE: BLOCK-1                                                                         
  CORRESPONDING RESIDUAL FORCE     -2.340E-14
 LARGEST INCREMENT OF DISP.        -1.637E-08   AT NODE        114   DOF  2
   INSTANCE: BLOCK-1                                                                         
 LARGEST CORRECTION TO DISP.       -1.637E-10   AT NODE      12154   DOF  2
   INSTANCE: BLOCK-1                                                                         
          THE FORCE     EQUILIBRIUM RESPONSE WAS LINEAR IN THIS INCREMENT

 AVERAGE MOMENT                      0.00       TIME AVG. MOMENT      1.000E-02
 ALL MOMENT    RESIDUALS ARE ZERO
 ALL ROTATION INCREMENTS ARE ZERO
 ALL CORRECTION TO ROTATION ARE ZERO
          THERE IS ZERO MOMENT    EVERYWHERE

 ITERATION SUMMARY FOR THE INCREMENT:   1 TOTAL ITERATIONS, OF WHICH
   0 ARE SEVERE DISCONTINUITY ITERATIONS AND  1 ARE EQUILIBRIUM ITERATIONS.

 TIME INCREMENT COMPLETED  1.000E-07,  FRACTION OF STEP COMPLETED  4.200E-02
 STEP TIME COMPLETED       4.200E-06,  TOTAL TIME COMPLETED        4.200E-06


  INCREMENT    43 STARTS. ATTEMPT NUMBER  1, TIME INCREMENT  1.000E-07
 
	SYMMETRIC DIRECT SPARSE SOLVER RUNNING ON
 	1 HOST x 1 MPI RANK PER HOST x 2 THREADS PER RANK
        NUMBER OF EQUATIONS:  61376
        NUMBER OF RHS:        1
        NUMBER OF FLOPS:      4.311e+10
        SOLVER ELAPSED TIME:  66ms

               CONVERGENCE CHECKS FOR EQUILIBRIUM ITERATION     1


 AVERAGE FORCE                      0.328       TIME AVG. FORCE       0.218    
 LARGEST SCALED RESIDUAL FORCE     -2.499E-14   AT NODE       2678   DOF  2
   INSTANCE: BLOCK-1                                                                         
  CORRESPONDING RESIDUAL FORCE     -2.499E-14
 LARGEST INCREMENT OF DISP.        -1.632E-08   AT NODE      14429   DOF  2
   INSTANCE: BLOCK-1                                                                         
 LARGEST CORRECTION TO DISP.       -1.650E-10   AT NODE      12035   DOF  2
   INSTANCE: BLOCK-1                                                                         
          THE FORCE     EQUILIBRIUM RESPONSE WAS LINEAR IN THIS INCREMENT

 AVERAGE MOMENT                      0.00       TIME AVG. MOMENT      1.000E-02
 ALL MOMENT    RESIDUALS ARE ZERO
 ALL ROTATION INCREMENTS ARE ZERO
 ALL CORRECTION TO ROTATION ARE ZERO
          THERE IS ZERO MOMENT    EVERYWHERE

 ITERATION SUMMARY FOR THE INCREMENT:   1 TOTAL ITERATIONS, OF WHICH
   0 ARE SEVERE DISCONTINUITY ITERATIONS AND  1 ARE EQUILIBRIUM ITERATIONS.

 TIME INCREMENT COMPLETED  1.000E-07,  FRACTION OF STEP COMPLETED  4.300E-02
 STEP TIME COMPLETED       4.300E-06,  TOTAL TIME COMPLETED        4.300E-06


  INCREMENT    44 STARTS. ATTEMPT NUMBER  1, TIME INCREMENT  1.000E-07
 
	SYMMETRIC DIRECT SPARSE SOLVER RUNNING ON
 	1 HOST x 1 MPI RANK PER HOST x 2 THREADS PER RANK
        NUMBER OF EQUATIONS:  61376
        NUMBER OF RHS:        1
        NUMBER OF FLOPS:      4.311e+10
        SOLVER ELAPSED TIME:  69ms

               CONVERGENCE CHECKS FOR EQUILIBRIUM ITERATION     1


 AVERAGE FORCE                      0.333       TIME AVG. FORCE       0.221    
 LARGEST SCALED RESIDUAL FORCE     -2.308E-14   AT NODE       4117   DOF  2
   INSTANCE: BLOCK-1                                                                         
  CORRESPONDING RESIDUAL FORCE     -2.308E-14
 LARGEST INCREMENT OF DISP.        -1.689E-08   AT NODE      14429   DOF  2
   INSTANCE: BLOCK-1                                                                         
 LARGEST CORRECTION TO DISP.       -2.055E-10   AT NODE      14256   DOF  2
   INSTANCE: BLOCK-1                                                                         
          THE FORCE     EQUILIBRIUM RESPONSE WAS LINEAR IN THIS INCREMENT

 AVERAGE MOMENT                      0.00       TIME AVG. MOMENT      1.000E-02
 ALL MOMENT    RESIDUALS ARE ZERO
 ALL ROTATION INCREMENTS ARE ZERO
 ALL CORRECTION TO ROTATION ARE ZERO
          THERE IS ZERO MOMENT    EVERYWHERE

 ITERATION SUMMARY FOR THE INCREMENT:   1 TOTAL ITERATIONS, OF WHICH
   0 ARE SEVERE DISCONTINUITY ITERATIONS AND  1 ARE EQUILIBRIUM ITERATIONS.

 TIME INCREMENT COMPLETED  1.000E-07,  FRACTION OF STEP COMPLETED  4.400E-02
 STEP TIME COMPLETED       4.400E-06,  TOTAL TIME COMPLETED        4.400E-06


  INCREMENT    45 STARTS. ATTEMPT NUMBER  1, TIME INCREMENT  1.000E-07
 
	SYMMETRIC DIRECT SPARSE SOLVER RUNNING ON
 	1 HOST x 1 MPI RANK PER HOST x 2 THREADS PER RANK
        NUMBER OF EQUATIONS:  61376
        NUMBER OF RHS:        1
        NUMBER OF FLOPS:      4.311e+10
        SOLVER ELAPSED TIME:  71ms

               CONVERGENCE CHECKS FOR EQUILIBRIUM ITERATION     1


 AVERAGE FORCE                      0.339       TIME AVG. FORCE       0.224    
 LARGEST SCALED RESIDUAL FORCE     -2.533E-14   AT NODE       3686   DOF  2
   INSTANCE: BLOCK-1                                                                         
  CORRESPONDING RESIDUAL FORCE     -2.533E-14
 LARGEST INCREMENT OF DISP.        -1.720E-08   AT NODE      14429   DOF  2
   INSTANCE: BLOCK-1                                                                         
 LARGEST CORRECTION TO DISP.       -2.615E-10   AT NODE          8   DOF  2
   INSTANCE: BLOCK-1                                                                         
          THE FORCE     EQUILIBRIUM RESPONSE WAS LINEAR IN THIS INCREMENT

 AVERAGE MOMENT                      0.00       TIME AVG. MOMENT      1.000E-02
 ALL MOMENT    RESIDUALS ARE ZERO
 ALL ROTATION INCREMENTS ARE ZERO
 ALL CORRECTION TO ROTATION ARE ZERO
          THERE IS ZERO MOMENT    EVERYWHERE

 ITERATION SUMMARY FOR THE INCREMENT:   1 TOTAL ITERATIONS, OF WHICH
   0 ARE SEVERE DISCONTINUITY ITERATIONS AND  1 ARE EQUILIBRIUM ITERATIONS.

 TIME INCREMENT COMPLETED  1.000E-07,  FRACTION OF STEP COMPLETED  4.500E-02
 STEP TIME COMPLETED       4.500E-06,  TOTAL TIME COMPLETED        4.500E-06


  INCREMENT    46 STARTS. ATTEMPT NUMBER  1, TIME INCREMENT  1.000E-07
 
	SYMMETRIC DIRECT SPARSE SOLVER RUNNING ON
 	1 HOST x 1 MPI RANK PER HOST x 2 THREADS PER RANK
        NUMBER OF EQUATIONS:  61376
        NUMBER OF RHS:        1
        NUMBER OF FLOPS:      4.311e+10
        SOLVER ELAPSED TIME:  79ms

               CONVERGENCE CHECKS FOR EQUILIBRIUM ITERATION     1


 AVERAGE FORCE                      0.344       TIME AVG. FORCE       0.226    
 LARGEST SCALED RESIDUAL FORCE      2.696E-14   AT NODE       5248   DOF  2
   INSTANCE: BLOCK-1                                                                         
  CORRESPONDING RESIDUAL FORCE      2.696E-14
 LARGEST INCREMENT OF DISP.        -1.722E-08   AT NODE        181   DOF  2
   INSTANCE: BLOCK-1                                                                         
 LARGEST CORRECTION TO DISP.       -2.834E-10   AT NODE          8   DOF  2
   INSTANCE: BLOCK-1                                                                         
          THE FORCE     EQUILIBRIUM RESPONSE WAS LINEAR IN THIS INCREMENT

[...]
   INSTANCE: BLOCK-1                                                                         
  CORRESPONDING RESIDUAL MOMENT    -1.140E-19
 LARGEST INCREMENT OF ROTATION      9.497E-03   AT NODE      14892   DOF  4
   INSTANCE: BLOCK-1                                                                         
 LARGEST CORRECTION TO ROTATION    -1.694E-03   AT NODE      10461   DOF  4
   INSTANCE: BLOCK-1                                                                         
          THE MOMENT    EQUILIBRIUM RESPONSE WAS LINEAR IN THIS INCREMENT

 ITERATION SUMMARY FOR THE INCREMENT:   1 TOTAL ITERATIONS, OF WHICH
   0 ARE SEVERE DISCONTINUITY ITERATIONS AND  1 ARE EQUILIBRIUM ITERATIONS.

 TIME INCREMENT COMPLETED  1.000E-07,  FRACTION OF STEP COMPLETED  0.376    
 STEP TIME COMPLETED       3.760E-05,  TOTAL TIME COMPLETED        3.760E-05


  INCREMENT   377 STARTS. ATTEMPT NUMBER  1, TIME INCREMENT  1.000E-07
 
	SYMMETRIC DIRECT SPARSE SOLVER RUNNING ON
 	1 HOST x 1 MPI RANK PER HOST x 2 THREADS PER RANK
        NUMBER OF EQUATIONS:  61376
        NUMBER OF RHS:        1
        NUMBER OF FLOPS:      4.311e+10
        SOLVER ELAPSED TIME:  1.1s

               CONVERGENCE CHECKS FOR EQUILIBRIUM ITERATION     1


 AVERAGE FORCE                      0.527       TIME AVG. FORCE       0.455    
 LARGEST SCALED RESIDUAL FORCE     -5.009E-05   AT NODE      13169   DOF  2
   INSTANCE: BLOCK-1                                                                         
  CORRESPONDING RESIDUAL FORCE     -5.009E-05
 LARGEST INCREMENT OF DISP.        -1.212E-07   AT NODE       3469   DOF  2
   INSTANCE: BLOCK-1                                                                         
 LARGEST CORRECTION TO DISP.        3.298E-10   AT NODE       7835   DOF  2
   INSTANCE: BLOCK-1                                                                         
          THE FORCE     EQUILIBRIUM EQUATIONS HAVE CONVERGED

 AVERAGE MOMENT                     1.319E-07   TIME AVG. MOMENT      1.260E-07
 LARGEST SCALED RESIDUAL MOMENT     9.381E-20   AT NODE       3290   DOF  4
   INSTANCE: BLOCK-1                                                                         
  CORRESPONDING RESIDUAL MOMENT     9.381E-20
 LARGEST INCREMENT OF ROTATION      9.367E-03   AT NODE      14892   DOF  4
   INSTANCE: BLOCK-1                                                                         
 LARGEST CORRECTION TO ROTATION     1.574E-03   AT NODE      10461   DOF  4
   INSTANCE: BLOCK-1                                                                         
          THE MOMENT    EQUILIBRIUM RESPONSE WAS LINEAR IN THIS INCREMENT

 ITERATION SUMMARY FOR THE INCREMENT:   1 TOTAL ITERATIONS, OF WHICH
   0 ARE SEVERE DISCONTINUITY ITERATIONS AND  1 ARE EQUILIBRIUM ITERATIONS.

 TIME INCREMENT COMPLETED  1.000E-07,  FRACTION OF STEP COMPLETED  0.377    
 STEP TIME COMPLETED       3.770E-05,  TOTAL TIME COMPLETED        3.770E-05


  INCREMENT   378 STARTS. ATTEMPT NUMBER  1, TIME INCREMENT  1.000E-07
 
	SYMMETRIC DIRECT SPARSE SOLVER RUNNING ON
 	1 HOST x 1 MPI RANK PER HOST x 2 THREADS PER RANK
        NUMBER OF EQUATIONS:  61376
        NUMBER OF RHS:        1
        NUMBER OF FLOPS:      4.311e+10
        SOLVER ELAPSED TIME:  1.1s

               CONVERGENCE CHECKS FOR EQUILIBRIUM ITERATION     1


 AVERAGE FORCE                      0.524       TIME AVG. FORCE       0.455    
 LARGEST SCALED RESIDUAL FORCE     -1.139E-04   AT NODE       7361   DOF  3
   INSTANCE: BLOCK-1                                                                         
  CORRESPONDING RESIDUAL FORCE     -1.139E-04
 LARGEST INCREMENT OF DISP.        -1.215E-07   AT NODE       3469   DOF  2
   INSTANCE: BLOCK-1                                                                         
 LARGEST CORRECTION TO DISP.       -3.223E-10   AT NODE       7741   DOF  2
   INSTANCE: BLOCK-1                                                                         
          THE FORCE     EQUILIBRIUM EQUATIONS HAVE CONVERGED

 AVERAGE MOMENT                     1.324E-07   TIME AVG. MOMENT      1.263E-07
 LARGEST SCALED RESIDUAL MOMENT     7.920E-20   AT NODE       1098   DOF  4
   INSTANCE: BLOCK-1                                                                         
  CORRESPONDING RESIDUAL MOMENT     7.920E-20
 LARGEST INCREMENT OF ROTATION      9.221E-03   AT NODE      14892   DOF  4
   INSTANCE: BLOCK-1                                                                         
 LARGEST CORRECTION TO ROTATION    -1.532E-03   AT NODE      10461   DOF  4
   INSTANCE: BLOCK-1                                                                         
          THE MOMENT    EQUILIBRIUM RESPONSE WAS LINEAR IN THIS INCREMENT

 ITERATION SUMMARY FOR THE INCREMENT:   1 TOTAL ITERATIONS, OF WHICH
   0 ARE SEVERE DISCONTINUITY ITERATIONS AND  1 ARE EQUILIBRIUM ITERATIONS.

 TIME INCREMENT COMPLETED  1.000E-07,  FRACTION OF STEP COMPLETED  0.378    
 STEP TIME COMPLETED       3.780E-05,  TOTAL TIME COMPLETED        3.780E-05


  INCREMENT   379 STARTS. ATTEMPT NUMBER  1, TIME INCREMENT  1.000E-07
 
	SYMMETRIC DIRECT SPARSE SOLVER RUNNING ON
 	1 HOST x 1 MPI RANK PER HOST x 2 THREADS PER RANK
        NUMBER OF EQUATIONS:  61376
        NUMBER OF RHS:        1
        NUMBER OF FLOPS:      4.311e+10
        SOLVER ELAPSED TIME:  1.1s

               CONVERGENCE CHECKS FOR EQUILIBRIUM ITERATION     1


 AVERAGE FORCE                      0.521       TIME AVG. FORCE       0.455    
 LARGEST SCALED RESIDUAL FORCE     -1.548E-04   AT NODE       6811   DOF  3
   INSTANCE: BLOCK-1                                                                         
  CORRESPONDING RESIDUAL FORCE     -1.548E-04
 LARGEST INCREMENT OF DISP.         1.224E-07   AT NODE       9907   DOF  2
   INSTANCE: BLOCK-1                                                                         
 LARGEST CORRECTION TO DISP.       -2.943E-10   AT NODE       7741   DOF  2
   INSTANCE: BLOCK-1                                                                         
          THE FORCE     EQUILIBRIUM EQUATIONS HAVE CONVERGED

 AVERAGE MOMENT                     1.330E-07   TIME AVG. MOMENT      1.267E-07
 LARGEST SCALED RESIDUAL MOMENT     1.146E-19   AT NODE       6578   DOF  4
   INSTANCE: BLOCK-1                                                                         
  CORRESPONDING RESIDUAL MOMENT     1.146E-19
 LARGEST INCREMENT OF ROTATION      9.146E-03   AT NODE       7221   DOF  4
   INSTANCE: BLOCK-1                                                                         
 LARGEST CORRECTION TO ROTATION     1.468E-03   AT NODE      10461   DOF  4
   INSTANCE: BLOCK-1                                                                         
          THE MOMENT    EQUILIBRIUM RESPONSE WAS LINEAR IN THIS INCREMENT

 ITERATION SUMMARY FOR THE INCREMENT:   1 TOTAL ITERATIONS, OF WHICH
   0 ARE SEVERE DISCONTINUITY ITERATIONS AND  1 ARE EQUILIBRIUM ITERATIONS.

 TIME INCREMENT COMPLETED  1.000E-07,  FRACTION OF STEP COMPLETED  0.379    
 STEP TIME COMPLETED       3.790E-05,  TOTAL TIME COMPLETED        3.790E-05


  INCREMENT   380 STARTS. ATTEMPT NUMBER  1, TIME INCREMENT  1.000E-07
 
	SYMMETRIC DIRECT SPARSE SOLVER RUNNING ON
 	1 HOST x 1 MPI RANK PER HOST x 2 THREADS PER RANK
        NUMBER OF EQUATIONS:  61376
        NUMBER OF RHS:        1
        NUMBER OF FLOPS:      4.311e+10
        SOLVER ELAPSED TIME:  1.1s

               CONVERGENCE CHECKS FOR EQUILIBRIUM ITERATION     1


 AVERAGE FORCE                      0.517       TIME AVG. FORCE       0.455    
 LARGEST SCALED RESIDUAL FORCE     -5.205E-05   AT NODE       5687   DOF  3
   INSTANCE: BLOCK-1                                                                         
  CORRESPONDING RESIDUAL FORCE     -5.205E-05
 LARGEST INCREMENT OF DISP.         1.234E-07   AT NODE       4427   DOF  2
   INSTANCE: BLOCK-1                                                                         
 LARGEST CORRECTION TO DISP.       -2.647E-10   AT NODE       7742   DOF  2
   INSTANCE: BLOCK-1                                                                         
          THE FORCE     EQUILIBRIUM EQUATIONS HAVE CONVERGED

 AVERAGE MOMENT                     1.335E-07   TIME AVG. MOMENT      1.270E-07
 LARGEST SCALED RESIDUAL MOMENT    -9.000E-20   AT NODE       2194   DOF  4
   INSTANCE: BLOCK-1                                                                         
  CORRESPONDING RESIDUAL MOMENT    -9.000E-20
 LARGEST INCREMENT OF ROTATION      9.090E-03   AT NODE       7221   DOF  4
   INSTANCE: BLOCK-1                                                                         
 LARGEST CORRECTION TO ROTATION    -1.262E-03   AT NODE      10461   DOF  4
   INSTANCE: BLOCK-1                                                                         
          THE MOMENT    EQUILIBRIUM RESPONSE WAS LINEAR IN THIS INCREMENT

 ITERATION SUMMARY FOR THE INCREMENT:   1 TOTAL ITERATIONS, OF WHICH
   0 ARE SEVERE DISCONTINUITY ITERATIONS AND  1 ARE EQUILIBRIUM ITERATIONS.

 TIME INCREMENT COMPLETED  1.000E-07,  FRACTION OF STEP COMPLETED  0.380    
 STEP TIME COMPLETED       3.800E-05,  TOTAL TIME COMPLETED        3.800E-05


  INCREMENT   381 STARTS. ATTEMPT NUMBER  1, TIME INCREMENT  1.000E-07
 
	SYMMETRIC DIRECT SPARSE SOLVER RUNNING ON
 	1 HOST x 1 MPI RANK PER HOST x 2 THREADS PER RANK
        NUMBER OF EQUATIONS:  61376
        NUMBER OF RHS:        1
        NUMBER OF FLOPS:      4.311e+10
        SOLVER ELAPSED TIME:  1.1s

               CONVERGENCE CHECKS FOR EQUILIBRIUM ITERATION     1


 AVERAGE FORCE                      0.513       TIME AVG. FORCE       0.456    
 LARGEST SCALED RESIDUAL FORCE      4.198E-05   AT NODE       8564   DOF  3
   INSTANCE: BLOCK-1                                                                         
  CORRESPONDING RESIDUAL FORCE      4.198E-05
 LARGEST INCREMENT OF DISP.         1.242E-07   AT NODE       4427   DOF  2
   INSTANCE: BLOCK-1                                                                         
 LARGEST CORRECTION TO DISP.       -2.887E-10   AT NODE       5682   DOF  2
   INSTANCE: BLOCK-1                                                                         
          THE FORCE     EQUILIBRIUM EQUATIONS HAVE CONVERGED

 AVERAGE MOMENT                     1.341E-07   TIME AVG. MOMENT      1.274E-07
 LARGEST SCALED RESIDUAL MOMENT     1.025E-19   AT NODE       8770   DOF  4
   INSTANCE: BLOCK-1                                                                         
  CORRESPONDING RESIDUAL MOMENT     1.025E-19
 LARGEST INCREMENT OF ROTATION      9.016E-03   AT NODE       8317   DOF  4
   INSTANCE: BLOCK-1                                                                         
 LARGEST CORRECTION TO ROTATION     1.092E-03   AT NODE      10461   DOF  4
   INSTANCE: BLOCK-1                                                                         
          THE MOMENT    EQUILIBRIUM RESPONSE WAS LINEAR IN THIS INCREMENT

 ITERATION SUMMARY FOR THE INCREMENT:   1 TOTAL ITERATIONS, OF WHICH
   0 ARE SEVERE DISCONTINUITY ITERATIONS AND  1 ARE EQUILIBRIUM ITERATIONS.

 TIME INCREMENT COMPLETED  1.000E-07,  FRACTION OF STEP COMPLETED  0.381    
 STEP TIME COMPLETED       3.810E-05,  TOTAL TIME COMPLETED        3.810E-05


  INCREMENT   382 STARTS. ATTEMPT NUMBER  1, TIME INCREMENT  1.000E-07
 
	SYMMETRIC DIRECT SPARSE SOLVER RUNNING ON
 	1 HOST x 1 MPI RANK PER HOST x 2 THREADS PER RANK
        NUMBER OF EQUATIONS:  61376
        NUMBER OF RHS:        1
        NUMBER OF FLOPS:      4.311e+10
        SOLVER ELAPSED TIME:  1.1s

               CONVERGENCE CHECKS FOR EQUILIBRIUM ITERATION     1


 AVERAGE FORCE                      0.508       TIME AVG. FORCE       0.456    
 LARGEST SCALED RESIDUAL FORCE     -4.121E-05   AT NODE       9694   DOF  2
   INSTANCE: BLOCK-1                                                                         
  CORRESPONDING RESIDUAL FORCE     -4.121E-05
 LARGEST INCREMENT OF DISP.         1.248E-07   AT NODE       4427   DOF  2
   INSTANCE: BLOCK-1                                                                         
 LARGEST CORRECTION TO DISP.       -3.056E-10   AT NODE       5682   DOF  2
   INSTANCE: BLOCK-1                                                                         
          THE FORCE     EQUILIBRIUM EQUATIONS HAVE CONVERGED

 AVERAGE MOMENT                     1.346E-07   TIME AVG. MOMENT      1.277E-07
 LARGEST SCALED RESIDUAL MOMENT    -9.672E-20   AT NODE       9409   DOF  4
   INSTANCE: BLOCK-1                                                                         
  CORRESPONDING RESIDUAL MOMENT    -9.672E-20
 LARGEST INCREMENT OF ROTATION      8.936E-03   AT NODE       8317   DOF  4
   INSTANCE: BLOCK-1                                                                         
 LARGEST CORRECTION TO ROTATION    -1.030E-03   AT NODE      10461   DOF  4
   INSTANCE: BLOCK-1                                                                         
          THE MOMENT    EQUILIBRIUM RESPONSE WAS LINEAR IN THIS INCREMENT

 ITERATION SUMMARY FOR THE INCREMENT:   1 TOTAL ITERATIONS, OF WHICH
   0 ARE SEVERE DISCONTINUITY ITERATIONS AND  1 ARE EQUILIBRIUM ITERATIONS.

 TIME INCREMENT COMPLETED  1.000E-07,  FRACTION OF STEP COMPLETED  0.382    
 STEP TIME COMPLETED       3.820E-05,  TOTAL TIME COMPLETED        3.820E-05


  INCREMENT   383 STARTS. ATTEMPT NUMBER  1, TIME INCREMENT  1.000E-07
 
	SYMMETRIC DIRECT SPARSE SOLVER RUNNING ON
 	1 HOST x 1 MPI RANK PER HOST x 2 THREADS PER RANK
        NUMBER OF EQUATIONS:  61376
        NUMBER OF RHS:        1
        NUMBER OF FLOPS:      4.311e+10
        SOLVER ELAPSED TIME:  1.1s

               CONVERGENCE CHECKS FOR EQUILIBRIUM ITERATION     1


 AVERAGE FORCE                      0.504       TIME AVG. FORCE       0.456    
 LARGEST SCALED RESIDUAL FORCE      3.947E-05   AT NODE      10114   DOF  3
   INSTANCE: BLOCK-1                                                                         
  CORRESPONDING RESIDUAL FORCE      3.947E-05
 LARGEST INCREMENT OF DISP.        -1.260E-07   AT NODE      10047   DOF  2
   INSTANCE: BLOCK-1                                                                         
 LARGEST CORRECTION TO DISP.       -2.995E-10   AT NODE       8971   DOF  2
   INSTANCE: BLOCK-1                                                                         
          THE FORCE     EQUILIBRIUM EQUATIONS HAVE CONVERGED

 AVERAGE MOMENT                     1.353E-07   TIME AVG. MOMENT      1.280E-07
 LARGEST SCALED RESIDUAL MOMENT     1.467E-19   AT NODE       9866   DOF  4
   INSTANCE: BLOCK-1                                                                         
  CORRESPONDING RESIDUAL MOMENT     1.467E-19
 LARGEST INCREMENT OF ROTATION      8.851E-03   AT NODE       7221   DOF  4
   INSTANCE: BLOCK-1                                                                         
 LARGEST CORRECTION TO ROTATION     9.699E-04   AT NODE      10461   DOF  4
   INSTANCE: BLOCK-1                                                                         
          THE MOMENT    EQUILIBRIUM RESPONSE WAS LINEAR IN THIS INCREMENT

 ITERATION SUMMARY FOR THE INCREMENT:   1 TOTAL ITERATIONS, OF WHICH
   0 ARE SEVERE DISCONTINUITY ITERATIONS AND  1 ARE EQUILIBRIUM ITERATIONS.

 TIME INCREMENT COMPLETED  1.000E-07,  FRACTION OF STEP COMPLETED  0.383    
 STEP TIME COMPLETED       3.830E-05,  TOTAL TIME COMPLETED        3.830E-05


  INCREMENT   384 STARTS. ATTEMPT NUMBER  1, TIME INCREMENT  1.000E-07
 
	SYMMETRIC DIRECT SPARSE SOLVER RUNNING ON
 	1 HOST x 1 MPI RANK PER HOST x 2 THREADS PER RANK
        NUMBER OF EQUATIONS:  61376
        NUMBER OF RHS:        1
        NUMBER OF FLOPS:      4.311e+10
        SOLVER ELAPSED TIME:  1.1s

               CONVERGENCE CHECKS FOR EQUILIBRIUM ITERATION     1


 AVERAGE FORCE                      0.499       TIME AVG. FORCE       0.456    
 LARGEST SCALED RESIDUAL FORCE      4.165E-05   AT NODE       9670   DOF  3
   INSTANCE: BLOCK-1                                                                         
  CORRESPONDING RESIDUAL FORCE      4.165E-05
 LARGEST INCREMENT OF DISP.        -1.277E-07   AT NODE      10969   DOF  2
   INSTANCE: BLOCK-1                                                                         
 LARGEST CORRECTION TO DISP.       -2.991E-10   AT NODE       8971   DOF  2
   INSTANCE: BLOCK-1                                                                         
          THE FORCE     EQUILIBRIUM EQUATIONS HAVE CONVERGED

 AVERAGE MOMENT                     1.358E-07   TIME AVG. MOMENT      1.284E-07
 LARGEST SCALED RESIDUAL MOMENT     1.125E-19   AT NODE       7217   DOF  4
   INSTANCE: BLOCK-1                                                                         
  CORRESPONDING RESIDUAL MOMENT     1.125E-19
 LARGEST INCREMENT OF ROTATION      8.768E-03   AT NODE       8317   DOF  4
   INSTANCE: BLOCK-1                                                                         
 LARGEST CORRECTION TO ROTATION    -8.865E-04   AT NODE      10461   DOF  4
   INSTANCE: BLOCK-1                                                                         
          THE MOMENT    EQUILIBRIUM RESPONSE WAS LINEAR IN THIS INCREMENT

 ITERATION SUMMARY FOR THE INCREMENT:   1 TOTAL ITERATIONS, OF WHICH
   0 ARE SEVERE DISCONTINUITY ITERATIONS AND  1 ARE EQUILIBRIUM ITERATIONS.

 TIME INCREMENT COMPLETED  1.000E-07,  FRACTION OF STEP COMPLETED  0.384    
 STEP TIME COMPLETED       3.840E-05,  TOTAL TIME COMPLETED        3.840E-05


  INCREMENT   385 STARTS. ATTEMPT NUMBER  1, TIME INCREMENT  1.000E-07
 
	SYMMETRIC DIRECT SPARSE SOLVER RUNNING ON
 	1 HOST x 1 MPI RANK PER HOST x 2 THREADS PER RANK
        NUMBER OF EQUATIONS:  61376
        NUMBER OF RHS:        1
        NUMBER OF FLOPS:      4.311e+10
        SOLVER ELAPSED TIME:  1.1s

               CONVERGENCE CHECKS FOR EQUILIBRIUM ITERATION     1


 AVERAGE FORCE                      0.495       TIME AVG. FORCE       0.456    
 LARGEST SCALED RESIDUAL FORCE      1.860E-04   AT NODE       4953   DOF  2
   INSTANCE: BLOCK-1                                                                         
  CORRESPONDING RESIDUAL FORCE      1.860E-04
 LARGEST INCREMENT OF DISP.        -1.293E-07   AT NODE      10969   DOF  2
   INSTANCE: BLOCK-1                                                                         
 LARGEST CORRECTION TO DISP.       -2.708E-10   AT NODE       8971   DOF  2
   INSTANCE: BLOCK-1                                                                         
          THE FORCE     EQUILIBRIUM EQUATIONS HAVE CONVERGED

 AVERAGE MOMENT                     1.365E-07   TIME AVG. MOMENT      1.287E-07
 LARGEST SCALED RESIDUAL MOMENT     1.086E-19   AT NODE      12058   DOF  4
   INSTANCE: BLOCK-1                                                                         
  CORRESPONDING RESIDUAL MOMENT     1.086E-19
 LARGEST INCREMENT OF ROTATION      8.744E-03   AT NODE       7221   DOF  4
   INSTANCE: BLOCK-1                                                                         
 LARGEST CORRECTION TO ROTATION     9.942E-04   AT NODE      10461   DOF  4
   INSTANCE: BLOCK-1                                                                         
          THE MOMENT    EQUILIBRIUM RESPONSE WAS LINEAR IN THIS INCREMENT

 ITERATION SUMMARY FOR THE INCREMENT:   1 TOTAL ITERATIONS, OF WHICH
   0 ARE SEVERE DISCONTINUITY ITERATIONS AND  1 ARE EQUILIBRIUM ITERATIONS.

 TIME INCREMENT COMPLETED  1.000E-07,  FRACTION OF STEP COMPLETED  0.385    
 STEP TIME COMPLETED       3.850E-05,  TOTAL TIME COMPLETED        3.850E-05


  INCREMENT   386 STARTS. ATTEMPT NUMBER  1, TIME INCREMENT  1.000E-07
 
	SYMMETRIC DIRECT SPARSE SOLVER RUNNING ON
 	1 HOST x 1 MPI RANK PER HOST x 2 THREADS PER RANK
        NUMBER OF EQUATIONS:  61376
        NUMBER OF RHS:        1
        NUMBER OF FLOPS:      4.311e+10
        SOLVER ELAPSED TIME:  1.3s
