 Abaqus/Standard 2023.HF4                  DATE 13-Aug-2024 TIME 16:18:29
 SUMMARY OF JOB INFORMATION:
 STEP  INC ATT SEVERE EQUIL TOTAL  TOTAL      STEP       INC OF       DOF    IF
               DISCON ITERS ITERS  TIME/    TIME/LPF    TIME/LPF    MONITOR RIKS
               ITERS               FREQ
   1     1   1     0     1     1  1.00e-07   1.00e-07   1.000e-07 
   1     2   1     0     1     1  2.00e-07   2.00e-07   1.000e-07 
   1     3   1     0     1     1  3.00e-07   3.00e-07   1.000e-07 
   1     4   1     0     1     1  4.00e-07   4.00e-07   1.000e-07 
   1     5   1     0     1     1  5.00e-07   5.00e-07   1.000e-07 
   1     6   1     0     1     1  6.00e-07   6.00e-07   1.000e-07 
   1     7   1     0     1     1  7.00e-07   7.00e-07   1.000e-07 
   1     8   1     0     1     1  8.00e-07   8.00e-07   1.000e-07 
   1     9   1     0     1     1  9.00e-07   9.00e-07   1.000e-07 
   1    10   1     0     1     1  1.00e-06   1.00e-06   1.000e-07 
   1    11   1     0     1     1  1.10e-06   1.10e-06   1.000e-07 
   1    12   1     0     1     1  1.20e-06   1.20e-06   1.000e-07 
   1    13   1     0     1     1  1.30e-06   1.30e-06   1.000e-07 
   1    14   1     0     1     1  1.40e-06   1.40e-06   1.000e-07 
   1    15   1     0     1     1  1.50e-06   1.50e-06   1.000e-07 
   1    16   1     0     1     1  1.60e-06   1.60e-06   1.000e-07 
   1    17   1     0     1     1  1.70e-06   1.70e-06   1.000e-07 
   1    18   1     0     1     1  1.80e-06   1.80e-06   1.000e-07 
   1    19   1     0     1     1  1.90e-06   1.90e-06   1.000e-07 
   1    20   1     0     1     1  2.00e-06   2.00e-06   1.000e-07 
   1    21   1     0     1     1  2.10e-06   2.10e-06   1.000e-07 
   1    22   1     0     1     1  2.20e-06   2.20e-06   1.000e-07 
   1    23   1     0     1     1  2.30e-06   2.30e-06   1.000e-07 
   1    24   1     0     1     1  2.40e-06   2.40e-06   1.000e-07 
   1    25   1     0     1     1  2.50e-06   2.50e-06   1.000e-07 
   1    26   1     0     1     1  2.60e-06   2.60e-06   1.000e-07 
   1    27   1     0     1     1  2.70e-06   2.70e-06   1.000e-07 
   1    28   1     0     1     1  2.80e-06   2.80e-06   1.000e-07 
   1    29   1     0     1     1  2.90e-06   2.90e-06   1.000e-07 
   1    30   1     0     1     1  3.00e-06   3.00e-06   1.000e-07 
   1    31   1     0     1     1  3.10e-06   3.10e-06   1.000e-07 
   1    32   1     0     1     1  3.20e-06   3.20e-06   1.000e-07 
   1    33   1     0     1     1  3.30e-06   3.30e-06   1.000e-07 
   1    34   1     0     1     1  3.40e-06   3.40e-06   1.000e-07 
   1    35   1     0     1     1  3.50e-06   3.50e-06   1.000e-07 
   1    36   1     0     1     1  3.60e-06   3.60e-06   1.000e-07 
   1    37   1     0     1     1  3.70e-06   3.70e-06   1.000e-07 
   1    38   1     0     1     1  3.80e-06   3.80e-06   1.000e-07 
   1    39   1     0     1     1  3.90e-06   3.90e-06   1.000e-07 
   1    40   1     0     1     1  4.00e-06   4.00e-06   1.000e-07 
   1    41   1     0     1     1  4.10e-06   4.10e-06   1.000e-07 
   1    42   1     0     1     1  4.20e-06   4.20e-06   1.000e-07 
   1    43   1     0     1     1  4.30e-06   4.30e-06   1.000e-07 
   1    44   1     0     1     1  4.40e-06   4.40e-06   1.000e-07 
   1    45   1     0     1     1  4.50e-06   4.50e-06   1.000e-07 
   1    46   1     0     1     1  4.60e-06   4.60e-06   1.000e-07 
   1    47   1     0     1     1  4.70e-06   4.70e-06   1.000e-07 
   1    48   1     0     1     1  4.80e-06   4.80e-06   1.000e-07 
   1    49   1     0     1     1  4.90e-06   4.90e-06   1.000e-07 
   1    50   1     0     1     1  5.00e-06   5.00e-06   1.000e-07 
   1    51   1     0     1     1  5.10e-06   5.10e-06   1.000e-07 
   1    52   1     0     1     1  5.20e-06   5.20e-06   1.000e-07 
   1    53   1     0     1     1  5.30e-06   5.30e-06   1.000e-07 
   1    54   1     0     1     1  5.40e-06   5.40e-06   1.000e-07 
   1    55   1     0     1     1  5.50e-06   5.50e-06   1.000e-07 
   1    56   1     0     1     1  5.60e-06   5.60e-06   1.000e-07 
   1    57   1     0     1     1  5.70e-06   5.70e-06   1.000e-07 
   1    58   1     0     1     1  5.80e-06   5.80e-06   1.000e-07 
   1    59   1     0     1     1  5.90e-06   5.90e-06   1.000e-07 
   1    60   1     0     1     1  6.00e-06   6.00e-06   1.000e-07 
   1    61   1     0     1     1  6.10e-06   6.10e-06   1.000e-07 
   1    62   1     0     1     1  6.20e-06   6.20e-06   1.000e-07 
   1    63   1     0     1     1  6.30e-06   6.30e-06   1.000e-07 
   1    64   1     0     1     1  6.40e-06   6.40e-06   1.000e-07 
   1    65   1     0     1     1  6.50e-06   6.50e-06   1.000e-07 
   1    66   1     0     1     1  6.60e-06   6.60e-06   1.000e-07 
   1    67   1     0     1     1  6.70e-06   6.70e-06   1.000e-07 
   1    68   1     0     1     1  6.80e-06   6.80e-06   1.000e-07 
   1    69   1     0     1     1  6.90e-06   6.90e-06   1.000e-07 
   1    70   1     0     1     1  7.00e-06   7.00e-06   1.000e-07 
   1    71   1     0     1     1  7.10e-06   7.10e-06   1.000e-07 
   1    72   1     0     1     1  7.20e-06   7.20e-06   1.000e-07 
   1    73   1     0     1     1  7.30e-06   7.30e-06   1.000e-07 
   1    74   1     0     1     1  7.40e-06   7.40e-06   1.000e-07 
   1    75   1     0     1     1  7.50e-06   7.50e-06   1.000e-07 
   1    76   1     0     1     1  7.60e-06   7.60e-06   1.000e-07 
   1    77   1     0     1     1  7.70e-06   7.70e-06   1.000e-07 
   1    78   1     0     1     1  7.80e-06   7.80e-06   1.000e-07 
   1    79   1     0     1     1  7.90e-06   7.90e-06   1.000e-07 
   1    80   1     0     1     1  8.00e-06   8.00e-06   1.000e-07 
   1    81   1     0     1     1  8.10e-06   8.10e-06   1.000e-07 
   1    82   1     0     1     1  8.20e-06   8.20e-06   1.000e-07 
   1    83   1     0     1     1  8.30e-06   8.30e-06   1.000e-07 
   1    84   1     0     1     1  8.40e-06   8.40e-06   1.000e-07 
   1    85   1     0     1     1  8.50e-06   8.50e-06   1.000e-07 
   1    86   1     0     1     1  8.60e-06   8.60e-06   1.000e-07 
   1    87   1     0     1     1  8.70e-06   8.70e-06   1.000e-07 
   1    88   1     0     1     1  8.80e-06   8.80e-06   1.000e-07 
   1    89   1     0     1     1  8.90e-06   8.90e-06   1.000e-07 
   1    90   1     0     1     1  9.00e-06   9.00e-06   1.000e-07 
   1    91   1     0     1     1  9.10e-06   9.10e-06   1.000e-07 
   1    92   1     0     1     1  9.20e-06   9.20e-06   1.000e-07 
   1    93   1     0     1     1  9.30e-06   9.30e-06   1.000e-07 
   1    94   1     0     1     1  9.40e-06   9.40e-06   1.000e-07 
   1    95   1     0     1     1  9.50e-06   9.50e-06   1.000e-07 
   1    96   1     0     1     1  9.60e-06   9.60e-06   1.000e-07 
   1    97   1     0     1     1  9.70e-06   9.70e-06   1.000e-07 
   1    98   1     0     1     1  9.80e-06   9.80e-06   1.000e-07 
   1    99   1     0     1     1  9.90e-06   9.90e-06   1.000e-07 
   1   100   1     0     1     1  1.00e-05   1.00e-05   1.000e-07 
   1   101   1     0     1     1  1.01e-05   1.01e-05   1.000e-07 
   1   102   1     0     1     1  1.02e-05   1.02e-05   1.000e-07 
   1   103   1     0     1     1  1.03e-05   1.03e-05   1.000e-07 
   1   104   1     0     1     1  1.04e-05   1.04e-05   1.000e-07 
   1   105   1     0     1     1  1.05e-05   1.05e-05   1.000e-07 
   1   106   1     0     1     1  1.06e-05   1.06e-05   1.000e-07 
   1   107   1     0     1     1  1.07e-05   1.07e-05   1.000e-07 
   1   108   1     0     1     1  1.08e-05   1.08e-05   1.000e-07 
   1   109   1     0     1     1  1.09e-05   1.09e-05   1.000e-07 
   1   110   1     0     1     1  1.10e-05   1.10e-05   1.000e-07 
   1   111   1     0     1     1  1.11e-05   1.11e-05   1.000e-07 
   1   112   1     0     1     1  1.12e-05   1.12e-05   1.000e-07 
   1   113   1     0     1     1  1.13e-05   1.13e-05   1.000e-07 
   1   114   1     0     1     1  1.14e-05   1.14e-05   1.000e-07 
   1   115   1     0     1     1  1.15e-05   1.15e-05   1.000e-07 
   1   116   1     0     1     1  1.16e-05   1.16e-05   1.000e-07 
   1   117   1     0     1     1  1.17e-05   1.17e-05   1.000e-07 
   1   118   1     0     1     1  1.18e-05   1.18e-05   1.000e-07 
   1   119   1     0     1     1  1.19e-05   1.19e-05   1.000e-07 
   1   120   1     0     1     1  1.20e-05   1.20e-05   1.000e-07 
   1   121   1     0     1     1  1.21e-05   1.21e-05   1.000e-07 
   1   122   1     0     1     1  1.22e-05   1.22e-05   1.000e-07 
   1   123   1     0     1     1  1.23e-05   1.23e-05   1.000e-07 
   1   124   1     0     1     1  1.24e-05   1.24e-05   1.000e-07 
   1   125   1     0     1     1  1.25e-05   1.25e-05   1.000e-07 
   1   126   1     0     1     1  1.26e-05   1.26e-05   1.000e-07 
   1   127   1     0     1     1  1.27e-05   1.27e-05   1.000e-07 
   1   128   1     0     1     1  1.28e-05   1.28e-05   1.000e-07 
   1   129   1     0     1     1  1.29e-05   1.29e-05   1.000e-07 
   1   130   1     0     1     1  1.30e-05   1.30e-05   1.000e-07 
   1   131   1     0     1     1  1.31e-05   1.31e-05   1.000e-07 
   1   132   1     0     1     1  1.32e-05   1.32e-05   1.000e-07 
   1   133   1     0     1     1  1.33e-05   1.33e-05   1.000e-07 
   1   134   1     0     1     1  1.34e-05   1.34e-05   1.000e-07 
   1   135   1     0     1     1  1.35e-05   1.35e-05   1.000e-07 
   1   136   1     0     1     1  1.36e-05   1.36e-05   1.000e-07 
   1   137   1     0     1     1  1.37e-05   1.37e-05   1.000e-07 
   1   138   1     0     1     1  1.38e-05   1.38e-05   1.000e-07 
   1   139   1     0     1     1  1.39e-05   1.39e-05   1.000e-07 
   1   140   1     0     1     1  1.40e-05   1.40e-05   1.000e-07 
   1   141   1     0     1     1  1.41e-05   1.41e-05   1.000e-07 
   1   142   1     0     1     1  1.42e-05   1.42e-05   1.000e-07 
   1   143   1     0     1     1  1.43e-05   1.43e-05   1.000e-07 
   1   144   1     0     1     1  1.44e-05   1.44e-05   1.000e-07 
   1   145   1     0     1     1  1.45e-05   1.45e-05   1.000e-07 
   1   146   1     0     1     1  1.46e-05   1.46e-05   1.000e-07 
   1   147   1     0     1     1  1.47e-05   1.47e-05   1.000e-07 
   1   148   1     0     1     1  1.48e-05   1.48e-05   1.000e-07 
   1   149   1     0     1     1  1.49e-05   1.49e-05   1.000e-07 
   1   150   1     0     1     1  1.50e-05   1.50e-05   1.000e-07 
   1   151   1     0     1     1  1.51e-05   1.51e-05   1.000e-07 
   1   152   1     0     1     1  1.52e-05   1.52e-05   1.000e-07 
   1   153   1     0     1     1  1.53e-05   1.53e-05   1.000e-07 
   1   154   1     0     1     1  1.54e-05   1.54e-05   1.000e-07 
   1   155   1     0     1     1  1.55e-05   1.55e-05   1.000e-07 
   1   156   1     0     1     1  1.56e-05   1.56e-05   1.000e-07 
   1   157   1     0     1     1  1.57e-05   1.57e-05   1.000e-07 
   1   158   1     0     1     1  1.58e-05   1.58e-05   1.000e-07 
   1   159   1     0     1     1  1.59e-05   1.59e-05   1.000e-07 
   1   160   1     0     1     1  1.60e-05   1.60e-05   1.000e-07 
   1   161   1     0     1     1  1.61e-05   1.61e-05   1.000e-07 
   1   162   1     0     1     1  1.62e-05   1.62e-05   1.000e-07 
   1   163   1     0     1     1  1.63e-05   1.63e-05   1.000e-07 
   1   164   1     0     1     1  1.64e-05   1.64e-05   1.000e-07 
   1   165   1     0     1     1  1.65e-05   1.65e-05   1.000e-07 
   1   166   1     0     1     1  1.66e-05   1.66e-05   1.000e-07 
   1   167   1     0     1     1  1.67e-05   1.67e-05   1.000e-07 
   1   168   1     0     1     1  1.68e-05   1.68e-05   1.000e-07 
   1   169   1     0     1     1  1.69e-05   1.69e-05   1.000e-07 
   1   170   1     0     1     1  1.70e-05   1.70e-05   1.000e-07 
   1   171   1     0     1     1  1.71e-05   1.71e-05   1.000e-07 
   1   172   1     0     1     1  1.72e-05   1.72e-05   1.000e-07 
   1   173   1     0     1     1  1.73e-05   1.73e-05   1.000e-07 
   1   174   1     0     1     1  1.74e-05   1.74e-05   1.000e-07 
   1   175   1     0     1     1  1.75e-05   1.75e-05   1.000e-07 
   1   176   1     0     1     1  1.76e-05   1.76e-05   1.000e-07 
   1   177   1     0     1     1  1.77e-05   1.77e-05   1.000e-07 
   1   178   1     0     1     1  1.78e-05   1.78e-05   1.000e-07 
   1   179   1     0     1     1  1.79e-05   1.79e-05   1.000e-07 
   1   180   1     0     1     1  1.80e-05   1.80e-05   1.000e-07 
   1   181   1     0     1     1  1.81e-05   1.81e-05   1.000e-07 
   1   182   1     0     1     1  1.82e-05   1.82e-05   1.000e-07 
   1   183   1     0     1     1  1.83e-05   1.83e-05   1.000e-07 
   1   184   1     0     1     1  1.84e-05   1.84e-05   1.000e-07 
   1   185   1     0     1     1  1.85e-05   1.85e-05   1.000e-07 
   1   186   1     0     1     1  1.86e-05   1.86e-05   1.000e-07 
   1   187   1     0     1     1  1.87e-05   1.87e-05   1.000e-07 
   1   188   1     0     1     1  1.88e-05   1.88e-05   1.000e-07 
   1   189   1     0     1     1  1.89e-05   1.89e-05   1.000e-07 
   1   190   1     0     1     1  1.90e-05   1.90e-05   1.000e-07 
   1   191   1     0     1     1  1.91e-05   1.91e-05   1.000e-07 
   1   192   1     0     1     1  1.92e-05   1.92e-05   1.000e-07 
   1   193   1     0     1     1  1.93e-05   1.93e-05   1.000e-07 
   1   194   1     0     1     1  1.94e-05   1.94e-05   1.000e-07 
   1   195   1     0     1     1  1.95e-05   1.95e-05   1.000e-07 
   1   196   1     0     1     1  1.96e-05   1.96e-05   1.000e-07 
   1   197   1     0     1     1  1.97e-05   1.97e-05   1.000e-07 
   1   198   1     0     1     1  1.98e-05   1.98e-05   1.000e-07 
   1   199   1     0     1     1  1.99e-05   1.99e-05   1.000e-07 
   1   200   1     0     1     1  2.00e-05   2.00e-05   1.000e-07 
   1   201   1     0     1     1  2.01e-05   2.01e-05   1.000e-07 
   1   202   1     0     1     1  2.02e-05   2.02e-05   1.000e-07 
   1   203   1     0     1     1  2.03e-05   2.03e-05   1.000e-07 
   1   204   1     0     1     1  2.04e-05   2.04e-05   1.000e-07 
   1   205   1     0     1     1  2.05e-05   2.05e-05   1.000e-07 
   1   206   1     0     1     1  2.06e-05   2.06e-05   1.000e-07 
   1   207   1     0     1     1  2.07e-05   2.07e-05   1.000e-07 
   1   208   1     0     1     1  2.08e-05   2.08e-05   1.000e-07 
   1   209   1     0     1     1  2.09e-05   2.09e-05   1.000e-07 
   1   210   1     0     1     1  2.10e-05   2.10e-05   1.000e-07 
   1   211   1     0     1     1  2.11e-05   2.11e-05   1.000e-07 
   1   212   1     0     1     1  2.12e-05   2.12e-05   1.000e-07 
   1   213   1     0     1     1  2.13e-05   2.13e-05   1.000e-07 
   1   214   1     0     1     1  2.14e-05   2.14e-05   1.000e-07 
   1   215   1     0     1     1  2.15e-05   2.15e-05   1.000e-07 
   1   216   1     0     1     1  2.16e-05   2.16e-05   1.000e-07 
   1   217   1     0     1     1  2.17e-05   2.17e-05   1.000e-07 
   1   218   1     0     1     1  2.18e-05   2.18e-05   1.000e-07 
   1   219   1     0     1     1  2.19e-05   2.19e-05   1.000e-07 
   1   220   1     0     1     1  2.20e-05   2.20e-05   1.000e-07 
   1   221   1     0     1     1  2.21e-05   2.21e-05   1.000e-07 
   1   222   1     0     1     1  2.22e-05   2.22e-05   1.000e-07 
   1   223   1     0     1     1  2.23e-05   2.23e-05   1.000e-07 
   1   224   1     0     1     1  2.24e-05   2.24e-05   1.000e-07 
   1   225   1     0     1     1  2.25e-05   2.25e-05   1.000e-07 
   1   226   1     0     1     1  2.26e-05   2.26e-05   1.000e-07 
   1   227   1     0     1     1  2.27e-05   2.27e-05   1.000e-07 
   1   228   1     0     1     1  2.28e-05   2.28e-05   1.000e-07 
   1   229   1     0     1     1  2.29e-05   2.29e-05   1.000e-07 
   1   230   1     0     1     1  2.30e-05   2.30e-05   1.000e-07 
   1   231   1     0     1     1  2.31e-05   2.31e-05   1.000e-07 
   1   232   1     0     1     1  2.32e-05   2.32e-05   1.000e-07 
   1   233   1     0     1     1  2.33e-05   2.33e-05   1.000e-07 
   1   234   1     0     1     1  2.34e-05   2.34e-05   1.000e-07 
   1   235   1     0     1     1  2.35e-05   2.35e-05   1.000e-07 
   1   236   1     0     1     1  2.36e-05   2.36e-05   1.000e-07 
   1   237   1     0     1     1  2.37e-05   2.37e-05   1.000e-07 
   1   238   1     0     1     1  2.38e-05   2.38e-05   1.000e-07 
   1   239   1     0     1     1  2.39e-05   2.39e-05   1.000e-07 
   1   240   1     0     1     1  2.40e-05   2.40e-05   1.000e-07 
   1   241   1     0     1     1  2.41e-05   2.41e-05   1.000e-07 
   1   242   1     0     1     1  2.42e-05   2.42e-05   1.000e-07 
   1   243   1     0     1     1  2.43e-05   2.43e-05   1.000e-07 
   1   244   1     0     1     1  2.44e-05   2.44e-05   1.000e-07 
   1   245   1     0     1     1  2.45e-05   2.45e-05   1.000e-07 
   1   246   1     0     1     1  2.46e-05   2.46e-05   1.000e-07 
   1   247   1     0     1     1  2.47e-05   2.47e-05   1.000e-07 
   1   248   1     0     1     1  2.48e-05   2.48e-05   1.000e-07 
   1   249   1     0     1     1  2.49e-05   2.49e-05   1.000e-07 
   1   250   1     0     1     1  2.50e-05   2.50e-05   1.000e-07 
   1   251   1     0     1     1  2.51e-05   2.51e-05   1.000e-07 
   1   252   1     0     1     1  2.52e-05   2.52e-05   1.000e-07 
   1   253   1     0     1     1  2.53e-05   2.53e-05   1.000e-07 
   1   254   1     0     1     1  2.54e-05   2.54e-05   1.000e-07 
   1   255   1     0     1     1  2.55e-05   2.55e-05   1.000e-07 
   1   256   1     0     1     1  2.56e-05   2.56e-05   1.000e-07 
   1   257   1     0     1     1  2.57e-05   2.57e-05   1.000e-07 
   1   258   1     0     1     1  2.58e-05   2.58e-05   1.000e-07 
   1   259   1     0     1     1  2.59e-05   2.59e-05   1.000e-07 
   1   260   1     0     1     1  2.60e-05   2.60e-05   1.000e-07 
   1   261   1     0     1     1  2.61e-05   2.61e-05   1.000e-07 
   1   262   1     0     1     1  2.62e-05   2.62e-05   1.000e-07 
   1   263   1     0     1     1  2.63e-05   2.63e-05   1.000e-07 
   1   264   1     0     1     1  2.64e-05   2.64e-05   1.000e-07 
   1   265   1     0     1     1  2.65e-05   2.65e-05   1.000e-07 
   1   266   1     0     1     1  2.66e-05   2.66e-05   1.000e-07 
   1   267   1     0     1     1  2.67e-05   2.67e-05   1.000e-07 
   1   268   1     0     1     1  2.68e-05   2.68e-05   1.000e-07 
   1   269   1     0     1     1  2.69e-05   2.69e-05   1.000e-07 
   1   270   1     0     1     1  2.70e-05   2.70e-05   1.000e-07 
   1   271   1     0     1     1  2.71e-05   2.71e-05   1.000e-07 
   1   272   1     0     1     1  2.72e-05   2.72e-05   1.000e-07 
   1   273   1     0     1     1  2.73e-05   2.73e-05   1.000e-07 
   1   274   1     0     1     1  2.74e-05   2.74e-05   1.000e-07 
   1   275   1     0     1     1  2.75e-05   2.75e-05   1.000e-07 
   1   276   1     0     1     1  2.76e-05   2.76e-05   1.000e-07 
   1   277   1     0     1     1  2.77e-05   2.77e-05   1.000e-07 
   1   278   1     0     1     1  2.78e-05   2.78e-05   1.000e-07 
   1   279   1     0     1     1  2.79e-05   2.79e-05   1.000e-07 
   1   280   1     0     1     1  2.80e-05   2.80e-05   1.000e-07 
   1   281   1     0     1     1  2.81e-05   2.81e-05   1.000e-07 
   1   282   1     0     1     1  2.82e-05   2.82e-05   1.000e-07 
   1   283   1     0     1     1  2.83e-05   2.83e-05   1.000e-07 
   1   284   1     0     1     1  2.84e-05   2.84e-05   1.000e-07 
   1   285   1     0     1     1  2.85e-05   2.85e-05   1.000e-07 
   1   286   1     0     1     1  2.86e-05   2.86e-05   1.000e-07 
   1   287   1     0     1     1  2.87e-05   2.87e-05   1.000e-07 
   1   288   1     0     1     1  2.88e-05   2.88e-05   1.000e-07 
   1   289   1     0     1     1  2.89e-05   2.89e-05   1.000e-07 
   1   290   1     0     1     1  2.90e-05   2.90e-05   1.000e-07 
   1   291   1     0     1     1  2.91e-05   2.91e-05   1.000e-07 
   1   292   1     0     1     1  2.92e-05   2.92e-05   1.000e-07 
   1   293   1     0     1     1  2.93e-05   2.93e-05   1.000e-07 
   1   294   1     0     1     1  2.94e-05   2.94e-05   1.000e-07 
   1   295   1     0     1     1  2.95e-05   2.95e-05   1.000e-07 
   1   296   1     0     1     1  2.96e-05   2.96e-05   1.000e-07 
   1   297   1     0     1     1  2.97e-05   2.97e-05   1.000e-07 
   1   298   1     0     1     1  2.98e-05   2.98e-05   1.000e-07 
   1   299   1     0     1     1  2.99e-05   2.99e-05   1.000e-07 
   1   300   1     0     1     1  3.00e-05   3.00e-05   1.000e-07 
   1   301   1     0     1     1  3.01e-05   3.01e-05   1.000e-07 
   1   302   1     0     1     1  3.02e-05   3.02e-05   1.000e-07 
   1   303   1     0     1     1  3.03e-05   3.03e-05   1.000e-07 
   1   304   1     0     1     1  3.04e-05   3.04e-05   1.000e-07 
   1   305   1     0     1     1  3.05e-05   3.05e-05   1.000e-07 
   1   306   1     0     1     1  3.06e-05   3.06e-05   1.000e-07 
   1   307   1     0     1     1  3.07e-05   3.07e-05   1.000e-07 
   1   308   1     0     1     1  3.08e-05   3.08e-05   1.000e-07 
   1   309   1     0     1     1  3.09e-05   3.09e-05   1.000e-07 
   1   310   1     0     1     1  3.10e-05   3.10e-05   1.000e-07 
   1   311   1     0     1     1  3.11e-05   3.11e-05   1.000e-07 
   1   312   1     0     1     1  3.12e-05   3.12e-05   1.000e-07 
   1   313   1     0     1     1  3.13e-05   3.13e-05   1.000e-07 
   1   314   1     0     1     1  3.14e-05   3.14e-05   1.000e-07 
   1   315   1     0     1     1  3.15e-05   3.15e-05   1.000e-07 
   1   316   1     0     1     1  3.16e-05   3.16e-05   1.000e-07 
   1   317   1     0     1     1  3.17e-05   3.17e-05   1.000e-07 
   1   318   1     0     1     1  3.18e-05   3.18e-05   1.000e-07 
   1   319   1     0     1     1  3.19e-05   3.19e-05   1.000e-07 
   1   320   1     0     1     1  3.20e-05   3.20e-05   1.000e-07 
   1   321   1     0     1     1  3.21e-05   3.21e-05   1.000e-07 
   1   322   1     0     1     1  3.22e-05   3.22e-05   1.000e-07 
   1   323   1     0     1     1  3.23e-05   3.23e-05   1.000e-07 
   1   324   1     0     1     1  3.24e-05   3.24e-05   1.000e-07 
   1   325   1     0     1     1  3.25e-05   3.25e-05   1.000e-07 
   1   326   1     0     1     1  3.26e-05   3.26e-05   1.000e-07 
   1   327   1     0     1     1  3.27e-05   3.27e-05   1.000e-07 
   1   328   1     0     1     1  3.28e-05   3.28e-05   1.000e-07 
   1   329   1     0     1     1  3.29e-05   3.29e-05   1.000e-07 
   1   330   1     0     1     1  3.30e-05   3.30e-05   1.000e-07 
   1   331   1     0     1     1  3.31e-05   3.31e-05   1.000e-07 
   1   332   1     0     1     1  3.32e-05   3.32e-05   1.000e-07 
   1   333   1     0     1     1  3.33e-05   3.33e-05   1.000e-07 
   1   334   1     0     1     1  3.34e-05   3.34e-05   1.000e-07 
   1   335   1     0     1     1  3.35e-05   3.35e-05   1.000e-07 
   1   336   1     0     1     1  3.36e-05   3.36e-05   1.000e-07 
   1   337   1     0     1     1  3.37e-05   3.37e-05   1.000e-07 
   1   338   1     0     1     1  3.38e-05   3.38e-05   1.000e-07 
   1   339   1     0     1     1  3.39e-05   3.39e-05   1.000e-07 
   1   340   1     0     1     1  3.40e-05   3.40e-05   1.000e-07 
   1   341   1     0     1     1  3.41e-05   3.41e-05   1.000e-07 
   1   342   1     0     1     1  3.42e-05   3.42e-05   1.000e-07 
   1   343   1     0     1     1  3.43e-05   3.43e-05   1.000e-07 
   1   344   1     0     1     1  3.44e-05   3.44e-05   1.000e-07 
   1   345   1     0     1     1  3.45e-05   3.45e-05   1.000e-07 
   1   346   1     0     1     1  3.46e-05   3.46e-05   1.000e-07 
   1   347   1     0     1     1  3.47e-05   3.47e-05   1.000e-07 
   1   348   1     0     1     1  3.48e-05   3.48e-05   1.000e-07 
   1   349   1     0     1     1  3.49e-05   3.49e-05   1.000e-07 
   1   350   1     0     1     1  3.50e-05   3.50e-05   1.000e-07 
   1   351   1     0     1     1  3.51e-05   3.51e-05   1.000e-07 
   1   352   1     0     1     1  3.52e-05   3.52e-05   1.000e-07 
   1   353   1     0     1     1  3.53e-05   3.53e-05   1.000e-07 
   1   354   1     0     1     1  3.54e-05   3.54e-05   1.000e-07 
   1   355   1     0     1     1  3.55e-05   3.55e-05   1.000e-07 
   1   356   1     0     1     1  3.56e-05   3.56e-05   1.000e-07 
   1   357   1     0     1     1  3.57e-05   3.57e-05   1.000e-07 
   1   358   1     0     1     1  3.58e-05   3.58e-05   1.000e-07 
   1   359   1     0     1     1  3.59e-05   3.59e-05   1.000e-07 
   1   360   1     0     1     1  3.60e-05   3.60e-05   1.000e-07 
   1   361   1     0     1     1  3.61e-05   3.61e-05   1.000e-07 
   1   362   1     0     1     1  3.62e-05   3.62e-05   1.000e-07 
   1   363   1     0     1     1  3.63e-05   3.63e-05   1.000e-07 
   1   364   1     0     1     1  3.64e-05   3.64e-05   1.000e-07 
   1   365   1     0     1     1  3.65e-05   3.65e-05   1.000e-07 
   1   366   1     0     1     1  3.66e-05   3.66e-05   1.000e-07 
   1   367   1     0     1     1  3.67e-05   3.67e-05   1.000e-07 
   1   368   1     0     1     1  3.68e-05   3.68e-05   1.000e-07 
   1   369   1     0     1     1  3.69e-05   3.69e-05   1.000e-07 
   1   370   1     0     1     1  3.70e-05   3.70e-05   1.000e-07 
   1   371   1     0     1     1  3.71e-05   3.71e-05   1.000e-07 
   1   372   1     0     1     1  3.72e-05   3.72e-05   1.000e-07 
   1   373   1     0     2     2  3.73e-05   3.73e-05   1.000e-07 
   1   374   1     0     1     1  3.74e-05   3.74e-05   1.000e-07 
   1   375   1     0     1     1  3.75e-05   3.75e-05   1.000e-07 
   1   376   1     0     1     1  3.76e-05   3.76e-05   1.000e-07 
   1   377   1     0     1     1  3.77e-05   3.77e-05   1.000e-07 
   1   378   1     0     1     1  3.78e-05   3.78e-05   1.000e-07 
   1   379   1     0     1     1  3.79e-05   3.79e-05   1.000e-07 
   1   380   1     0     1     1  3.80e-05   3.80e-05   1.000e-07 
   1   381   1     0     1     1  3.81e-05   3.81e-05   1.000e-07 
   1   382   1     0     1     1  3.82e-05   3.82e-05   1.000e-07 
   1   383   1     0     1     1  3.83e-05   3.83e-05   1.000e-07 
   1   384   1     0     1     1  3.84e-05   3.84e-05   1.000e-07 
   1   385   1     0     1     1  3.85e-05   3.85e-05   1.000e-07 
