1

   Abaqus 2023.HF4                                  Date 30-Jun-2024   Time 18:43:10
   For use by AALTO UNIVERSITY under license from Dassault Systemes or its subsidiary.



                         The Abaqus Software is a product of:

                           Dassault Systemes SIMULIA Corp.
                           1301 Atwood Avenue, Suite 101W
                              Johnston, RI 02919, USA
 


                   The Abaqus Software is available only under license
                   from Dassault Systemes or its subsidiary and may be
                   used or reproduced only in accordance with the terms
                   of such license.
 
                          On machine L23-0203 
                          you are authorized to run
                          Abaqus/Standard until 20-Feb-2025

                          Your site id is: 200000000014764 


 
                    For assistance or any other information you may
                    obtain contact information for your local office
                    from the world wide web at:

                      https://www.3ds.com/products-services/simulia/services-support/

 
                * * * * * * * * * * * * * * * * * * * * * * * * * * * * * * 
                *                                                         * 
                *                   *****************                     * 
                *                   *  N O T I C E  *                     * 
                *                   *****************                     * 
                *                                                         * 
                *                                                         * 
                *                     Abaqus 2023.HF4                     * 
                *                                                         * 
                *       BUILD ID: 2023_07_21-20.45.57 RELr425 183702      * 
                *                                                         * 
                *                                                         * 
                *  Please make sure you are using                         * 
                *  release Abaqus 2023.HF4 manuals                        * 
                *  plus the notes accompanying this release.              * 
                *                                                         * 
                *                                                         * 
                *                                                         * 
                *                                                         * 
                *                                                         * 
                *   This program may not be used for commercial purposes  * 
                *           without payment of a commercial fee.          * 
                *                                                         * 
                * * * * * * * * * * * * * * * * * * * * * * * * * * * * * * 


 



     PROCESSING PART, INSTANCE, AND ASSEMBLY INFORMATION
   *******************************************************


     END PROCESSING PART, INSTANCE, AND ASSEMBLY INFORMATION
   ***********************************************************




     OPTIONS BEING PROCESSED
   ***************************


  *Heading
  *Element, type=C3D8T
  *Elset, elset=ASSEMBLY_CHD2-M-1_SET-42
  *Elset, elset=ASSEMBLY_SET-1
  *Elset, elset=ASSEMBLY_SET-2
  *Elset, elset=ASSEMBLY_SET-3
  *Elset, elset=ASSEMBLY_SET-4
  *Elset, elset=ASSEMBLY_SET-5
  *Elset, elset=ASSEMBLY_SET-6
  *Elset, elset=ASSEMBLY_SET-7
  *Elset, elset=ASSEMBLY_SET-8
  *coupledtemperature-displacement, creep=NONE, deltmx=1
  *material, name=CP1000-M
  *conductivity
  *density
  *elastic
  *plastic
  *specificheat

 ***WARNING: THE ABSOLUTE ZERO TEMPERATURE HAS NOT BEEN SPECIFIED FOR COMPUTING 
             INTERNAL THERMAL ENERGY USING THE ABSOLUTE ZERO PARAMETER ON THE 
             *PHYSICAL CONSTANTS OPTION. A DEFAULT VALUE OF 0.0000 WILL BE 
             ASSUMED.
  *initialconditions, type=TEMPERATURE
  *solidsection, elset=ASSEMBLY_CHD2-M-1_SET-42, material=CP1000-M
  *solidsection, elset=ASSEMBLY_CHD2-M-1_SET-42, material=CP1000-M
  *initialconditions, type=TEMPERATURE
  *boundary
  *boundary
  *boundary, amplitude=AMP-1
  *boundary
  *boundary
  *boundary, amplitude=AMP-1
  *output, field, numberinterval=100
  *output, history, variable=PRESELECT
  *initialconditions, type=TEMPERATURE
  *output, field, numberinterval=100
  *output, history, variable=PRESELECT
  *initialconditions, type=TEMPERATURE
  *output, field, numberinterval=100
  *output, history, variable=PRESELECT
  
                               E L E M E N T   Q U A L I T Y  C H E C K S        
  
  
 ***NOTES: DISTORTED ISOPARAMETRIC ELEMENTS: ANGLE BETWEEN ISOPARAMETRIC LINES 
           IS LESS THAN 45 DEGREES OR GREATER THAN 135 DEGREES.
  
           TETRAHEDRAL QUALITY MEASURE: VOLUME OF TETRAHEDRON DIVIDED BY THE 
           VOLUME OF EQUILATERAL TETRAHEDRON WITH SAME CIRCUMSPHERE RADIUS; 
           0 FOR DEGENERATE TETRAHEDRON AND 1 FOR EQUILATERIAL TETRAHEDRON. IT 
           IS RECOMMENDED THAT THE TETRAHEDRAL QUALITY MEASURE BE GREATER THAN 
           0.02, THE MIN INTERIOR (DIHEDRAL) ANGLE BE GREATER THAN 10 DEGREES, 
           AND THE MAX INTERIOR (DIHEDRAL) ANGLE BE LESS THAN 160 DEGREES. 
  
           MODIFIED TETRAHEDRAL QUALITY MEASURE: ANGLES BETWEEN THE TWO LINE 
           SEGMENTS ON EACH EDGE; THE EDGES OF MODIFIED TETRAHEDRAL SHOULD BE 
           AS STRAIGHT AS POSSIBLE. IT IS RECOMMENDED THAT THE ANGLE BETWEEN 
           THE TWO LINE SEGMENTS ON EACH EDGE IS BETWEEN 160 AND 180 DEGREES. 
  
           TRIANGULAR QUALITY MEASURE: AREA OF TRIANGLE DIVIDED BY THE AREA OF 
           EQUILATERAL TRIANGLE WITH SAME CIRCUMCIRCLE RADIUS; 0 FOR DEGENERATE 
           TRIANGLE AND 1 FOR EQUILATERAL TRIANGLE. IT IS RECOMMENDED THAT THE
           TRIANGULAR QUALITY MEASURE BE GREATER THAN 0.01, THE MIN INTERIOR 
           ANGLE BE GREATER THAN 10 DEGREES, AND THE MAX INTERIOR ANGLE BE LESS 
           THAN 160 DEGREES. 
  
           NODAL ADJUSTMENTS ARISING FROM CONTACT INTERACTIONS AND/OR TIE 
           CONSTRAINTS CAN CAUSE SEVERE ELEMENT DISTORTION. IT MAY BE NECESSARY 
           TO REMESH IN ORDER TO REDUCE THE AMOUNT OF ADJUSTMENT. 

 ***WARNING: 232 elements are distorted. Either the isoparametric angles are 
             out of the suggested limits or the triangular or tetrahedral 
             quality measure is bad. The elements have been identified in 
             element set WarnElemDistorted.
  
 --------------------------------------------------------------------------------
 Distorted isoparametric elements
  
      Element        Min/max angle   Adjusted nodes 
 ------------------ ---------------- -------------- 
       CHD2-M-1.258          27.4048       NO       
       CHD2-M-1.264          41.6352       NO       
       CHD2-M-1.313          28.5424       NO       
       CHD2-M-1.320          14.9164       NO       
       CHD2-M-1.324          22.2455       NO       
       CHD2-M-1.326          39.2781       NO       
       CHD2-M-1.332          36.6566       NO       
       CHD2-M-1.333          40.3687       NO       
       CHD2-M-1.334          26.3644       NO       
       CHD2-M-1.336          31.1376       NO       
       CHD2-M-1.338          44.4511       NO       
       CHD2-M-1.339          22.0277       NO       
       CHD2-M-1.341          32.5406       NO       
       CHD2-M-1.344          30.0068       NO       
       CHD2-M-1.345          22.3137       NO       
       CHD2-M-1.651          27.4048       NO       
       CHD2-M-1.657          41.6352       NO       
       CHD2-M-1.706          28.5424       NO       
       CHD2-M-1.713          14.9164       NO       
       CHD2-M-1.717          22.2455       NO       
       CHD2-M-1.719          39.2781       NO       
       CHD2-M-1.725          36.6566       NO       
       CHD2-M-1.726          40.3687       NO       
       CHD2-M-1.727          26.3644       NO       
       CHD2-M-1.729          31.1376       NO       
       CHD2-M-1.731          44.4511       NO       
       CHD2-M-1.732          22.0277       NO       
       CHD2-M-1.734          32.5406       NO       
       CHD2-M-1.737          30.0068       NO       
       CHD2-M-1.738          22.3137       NO       
      CHD2-M-1.1044          27.4048       NO       
      CHD2-M-1.1050          41.6352       NO       
      CHD2-M-1.1099          28.5424       NO       
      CHD2-M-1.1106          14.9164       NO       
      CHD2-M-1.1110          22.2455       NO       
      CHD2-M-1.1112          39.2781       NO       
      CHD2-M-1.1118          36.6566       NO       
      CHD2-M-1.1119          40.3687       NO       
      CHD2-M-1.1120          26.3644       NO       
      CHD2-M-1.1122          31.1376       NO       
      CHD2-M-1.1124          44.4511       NO       
      CHD2-M-1.1125          22.0277       NO       
      CHD2-M-1.1127          32.5406       NO       
      CHD2-M-1.1130          30.0068       NO       
      CHD2-M-1.1131          22.3137       NO       
      CHD2-M-1.1437          27.4048       NO       
      CHD2-M-1.1443          41.6352       NO       
      CHD2-M-1.1492          28.5424       NO       
      CHD2-M-1.1499          14.9164       NO       
      CHD2-M-1.1503          22.2455       NO       
      CHD2-M-1.1505          39.2781       NO       
      CHD2-M-1.1511          36.6566       NO       
      CHD2-M-1.1512          40.3687       NO       
      CHD2-M-1.1513          26.3644       NO       
      CHD2-M-1.1515          31.1376       NO       
      CHD2-M-1.1517          44.4511       NO       
      CHD2-M-1.1518          22.0277       NO       
      CHD2-M-1.1520          32.5406       NO       
      CHD2-M-1.1523          30.0068       NO       
      CHD2-M-1.1524          22.3137       NO       
      CHD2-M-1.1830          27.4048       NO       
      CHD2-M-1.1836          41.6352       NO       
      CHD2-M-1.1885          28.5424       NO       
      CHD2-M-1.1892          14.9164       NO       
      CHD2-M-1.1896          22.2455       NO       
      CHD2-M-1.1898          39.2781       NO       
      CHD2-M-1.1904          36.6566       NO       
      CHD2-M-1.1905          40.3687       NO       
      CHD2-M-1.1906          26.3644       NO       
      CHD2-M-1.1908          31.1376       NO       
      CHD2-M-1.1910          44.4511       NO       
      CHD2-M-1.1911          22.0277       NO       
      CHD2-M-1.1913          32.5406       NO       
      CHD2-M-1.1916          30.0068       NO       
      CHD2-M-1.1917          22.3137       NO       
      CHD2-M-1.2223          27.4048       NO       
      CHD2-M-1.2229          41.6352       NO       
      CHD2-M-1.2278          28.5424       NO       
      CHD2-M-1.2285          14.9164       NO       
      CHD2-M-1.2289          22.2455       NO       
      CHD2-M-1.2291          39.2781       NO       
      CHD2-M-1.2297          36.6566       NO       
      CHD2-M-1.2298          40.3687       NO       
      CHD2-M-1.2299          26.3644       NO       
      CHD2-M-1.2301          31.1376       NO       
      CHD2-M-1.2303          44.4511       NO       
      CHD2-M-1.2304          22.0277       NO       
      CHD2-M-1.2306          32.5406       NO       
      CHD2-M-1.2309          30.0068       NO       
      CHD2-M-1.2310          22.3137       NO       
      CHD2-M-1.2616          27.4048       NO       
      CHD2-M-1.2622          41.6352       NO       
      CHD2-M-1.2671          28.5424       NO       
      CHD2-M-1.2678          14.9164       NO       
      CHD2-M-1.2682          22.2455       NO       
      CHD2-M-1.2684          39.2781       NO       
      CHD2-M-1.2690          36.6566       NO       
      CHD2-M-1.2691          40.3687       NO       
      CHD2-M-1.2692          26.3644       NO       
      CHD2-M-1.2694          31.1376       NO       
      CHD2-M-1.2696          44.4511       NO       
      CHD2-M-1.2697          22.0277       NO       
      CHD2-M-1.2699          32.5406       NO       
      CHD2-M-1.2702          30.0068       NO       
      CHD2-M-1.2703          22.3137       NO       
      CHD2-M-1.3009          27.4048       NO       
      CHD2-M-1.3015          41.6352       NO       
      CHD2-M-1.3064          28.5424       NO       
      CHD2-M-1.3071          14.9164       NO       
      CHD2-M-1.3075          22.2455       NO       
      CHD2-M-1.3077          39.2781       NO       
      CHD2-M-1.3083          36.6566       NO       
      CHD2-M-1.3084          40.3687       NO       
      CHD2-M-1.3085          26.3644       NO       
      CHD2-M-1.3087          31.1376       NO       
      CHD2-M-1.3089          44.4511       NO       
      CHD2-M-1.3090          22.0277       NO       
      CHD2-M-1.3092          32.5406       NO       
      CHD2-M-1.3095          30.0068       NO       
      CHD2-M-1.3096          22.3137       NO       
      CHD2-M-1.3471           24.636       NO       
      CHD2-M-1.3473          27.3802       NO       
      CHD2-M-1.3483           39.595       NO       
      CHD2-M-1.3491          44.8713       NO       
      CHD2-M-1.3509          27.3387       NO       
      CHD2-M-1.3510          24.6059       NO       
      CHD2-M-1.3526          31.5403       NO       
      CHD2-M-1.3532          42.8394       NO       
      CHD2-M-1.3537          31.0401       NO       
      CHD2-M-1.3541           14.337       NO       
      CHD2-M-1.3542          7.11106       NO       
      CHD2-M-1.3543          19.5201       NO       
      CHD2-M-1.3566          40.3042       NO       
      CHD2-M-1.3575          32.9392       NO       
      CHD2-M-1.3916           24.636       NO       
      CHD2-M-1.3918          27.3802       NO       
      CHD2-M-1.3928           39.595       NO       
      CHD2-M-1.3936          44.8713       NO       
      CHD2-M-1.3954          27.3387       NO       
      CHD2-M-1.3955          24.6059       NO       
      CHD2-M-1.3971          31.5403       NO       
      CHD2-M-1.3977          42.8394       NO       
      CHD2-M-1.3982          31.0401       NO       
      CHD2-M-1.3986           14.337       NO       
      CHD2-M-1.3987          7.11106       NO       
      CHD2-M-1.3988          19.5201       NO       
      CHD2-M-1.4011          40.3042       NO       
      CHD2-M-1.4020          32.9392       NO       
      CHD2-M-1.4361           24.636       NO       
      CHD2-M-1.4363          27.3802       NO       
      CHD2-M-1.4373           39.595       NO       
      CHD2-M-1.4381          44.8713       NO       
      CHD2-M-1.4399          27.3387       NO       
      CHD2-M-1.4400          24.6059       NO       
      CHD2-M-1.4416          31.5403       NO       
      CHD2-M-1.4422          42.8394       NO       
      CHD2-M-1.4427          31.0401       NO       
      CHD2-M-1.4431           14.337       NO       
      CHD2-M-1.4432          7.11106       NO       
      CHD2-M-1.4433          19.5201       NO       
      CHD2-M-1.4456          40.3042       NO       
      CHD2-M-1.4465          32.9392       NO       
      CHD2-M-1.4806           24.636       NO       
      CHD2-M-1.4808          27.3802       NO       
      CHD2-M-1.4818           39.595       NO       
      CHD2-M-1.4826          44.8713       NO       
      CHD2-M-1.4844          27.3387       NO       
      CHD2-M-1.4845          24.6059       NO       
      CHD2-M-1.4861          31.5403       NO       
      CHD2-M-1.4867          42.8394       NO       
      CHD2-M-1.4872          31.0401       NO       
      CHD2-M-1.4876           14.337       NO       
      CHD2-M-1.4877          7.11106       NO       
      CHD2-M-1.4878          19.5201       NO       
      CHD2-M-1.4901          40.3042       NO       
      CHD2-M-1.4910          32.9392       NO       
      CHD2-M-1.5251           24.636       NO       
      CHD2-M-1.5253          27.3802       NO       
      CHD2-M-1.5263           39.595       NO       
      CHD2-M-1.5271          44.8713       NO       
      CHD2-M-1.5289          27.3387       NO       
      CHD2-M-1.5290          24.6059       NO       
      CHD2-M-1.5306          31.5403       NO       
      CHD2-M-1.5312          42.8394       NO       
      CHD2-M-1.5317          31.0401       NO       
      CHD2-M-1.5321           14.337       NO       
      CHD2-M-1.5322          7.11106       NO       
      CHD2-M-1.5323          19.5201       NO       
      CHD2-M-1.5346          40.3042       NO       
      CHD2-M-1.5355          32.9392       NO       
      CHD2-M-1.5696           24.636       NO       
      CHD2-M-1.5698          27.3802       NO       
      CHD2-M-1.5708           39.595       NO       
      CHD2-M-1.5716          44.8713       NO       
      CHD2-M-1.5734          27.3387       NO       
      CHD2-M-1.5735          24.6059       NO       
      CHD2-M-1.5751          31.5403       NO       
      CHD2-M-1.5757          42.8394       NO       
      CHD2-M-1.5762          31.0401       NO       
      CHD2-M-1.5766           14.337       NO       
      CHD2-M-1.5767          7.11106       NO       
      CHD2-M-1.5768          19.5201       NO       
      CHD2-M-1.5791          40.3042       NO       
      CHD2-M-1.5800          32.9392       NO       
      CHD2-M-1.6141           24.636       NO       
      CHD2-M-1.6143          27.3802       NO       
      CHD2-M-1.6153           39.595       NO       
      CHD2-M-1.6161          44.8713       NO       
      CHD2-M-1.6179          27.3387       NO       
      CHD2-M-1.6180          24.6059       NO       
      CHD2-M-1.6196          31.5403       NO       
      CHD2-M-1.6202          42.8394       NO       
      CHD2-M-1.6207          31.0401       NO       
      CHD2-M-1.6211           14.337       NO       
      CHD2-M-1.6212          7.11106       NO       
      CHD2-M-1.6213          19.5201       NO       
      CHD2-M-1.6236          40.3042       NO       
      CHD2-M-1.6245          32.9392       NO       
      CHD2-M-1.6586           24.636       NO       
      CHD2-M-1.6588          27.3802       NO       
      CHD2-M-1.6598           39.595       NO       
      CHD2-M-1.6606          44.8713       NO       
      CHD2-M-1.6624          27.3387       NO       
      CHD2-M-1.6625          24.6059       NO       
      CHD2-M-1.6641          31.5403       NO       
      CHD2-M-1.6647          42.8394       NO       
      CHD2-M-1.6652          31.0401       NO       
      CHD2-M-1.6656           14.337       NO       
      CHD2-M-1.6657          7.11106       NO       
      CHD2-M-1.6658          19.5201       NO       
      CHD2-M-1.6681          40.3042       NO       
      CHD2-M-1.6690          32.9392       NO       
  
  
  *Step, name=Step-1, nlgeom=YES, inc=100000
  *output, field, numberinterval=100
  *output, history, variable=PRESELECT
  *Step, name=Step-1, nlgeom=YES, inc=100000
  *Step, name=Step-1, nlgeom=YES, inc=100000
  *coupledtemperature-displacement, creep=NONE, deltmx=1
  *boundary
  *boundary, amplitude=AMP-1
  *output, field, numberinterval=100
  *nodeoutput
  *output, history, variable=PRESELECT
  *endstep

 ***WARNING: OUTPUT AT EXACT, PREDEFINED TIME POINTS WAS REQUESTED IN THIS 
             STEP. Abaqus MIGHT ADJUST THE TIME INCREMENTATION BUT WILL NOT 
             VIOLATE THE MINIMUM TIME INCREMENT ALLOWED IN THE STEP IN ORDER TO 
             WRITE OUTPUT AT THOSE POINTS. CONSEQUENTLY, IN SOME CASES Abaqus 
             MIGHTWRITE OUTPUT IMMEDIATELY AFTER THE SPECIFIED TIME POINTS, 
             INSTEAD OF AT THE TIME POINTS. IN ADDITION, THE NUMBER OF 
             INCREMENTS REQUIRED TO COMPLETE THE STEP WILL IN GENERAL INCREASE.
  *boundary
  *Step, name=Step-1, nlgeom=YES, inc=100000
  *coupledtemperature-displacement, creep=NONE, deltmx=1
  *boundary
  *boundary, amplitude=AMP-1
  *endstep

 ***WARNING: Boundary conditions are specified on inactive dof 4 at 585 nodes. 
             The nodes have been identified in node set WarnNodeBCInactiveDof4.

 ***WARNING: Boundary conditions are specified on inactive dof 5 at 585 nodes. 
             The nodes have been identified in node set WarnNodeBCInactiveDof5.

 ***WARNING: Boundary conditions are specified on inactive dof 6 at 585 nodes. 
             The nodes have been identified in node set WarnNodeBCInactiveDof6.



                            P R O B L E M   S I Z E


          NUMBER OF ELEMENTS IS                                 55408
          NUMBER OF NODES IS                                    64386
          NUMBER OF NODES DEFINED BY THE USER                   64386
          TOTAL NUMBER OF VARIABLES IN THE MODEL               257544
          (DEGREES OF FREEDOM PLUS MAX NO. OF ANY LAGRANGE MULTIPLIER
           VARIABLES. INCLUDE *PRINT,SOLVE=YES TO GET THE ACTUAL NUMBER.)



                              END OF USER INPUT PROCESSING



     JOB TIME SUMMARY
       USER TIME (SEC)      =      1.7    
       SYSTEM TIME (SEC)    =     0.20    
       TOTAL CPU TIME (SEC) =      1.9    
       WALLCLOCK TIME (SEC) =            2
1

   Abaqus 2023.HF4                                  Date 30-Jun-2024   Time 18:43:17
   For use by AALTO UNIVERSITY under license from Dassault Systemes or its subsidiary.

                                                                                               STEP    1  INCREMENT    1
                                                                                          TIME COMPLETED IN THIS STEP   0.00    


                        S T E P       1     C O U P L E D - T E M P E R A T U R E - D I S P L A C E M E N T   A N A L Y S I S


                                                                                          

     AUTOMATIC TIME CONTROL WITH -
          A SUGGESTED INITIAL TIME INCREMENT OF                 10.0    
          AND A TOTAL TIME PERIOD OF                           1.000E+03
          THE MINIMUM TIME INCREMENT ALLOWED IS                1.000E-02
          THE MAXIMUM TIME INCREMENT ALLOWED IS                 10.0    

          CREEP AND SWELLING EFFECTS ARE OMITTED IN THIS STEP

     THE SIZE OF THE TIME INCREMENT IS CONTROLLED BY -
          THE TEMPERATURE CHANGE PER INCREMENT NOT EXCEEDING            1.00    
          THE RATE DEPENDENCY WILL BE CONSIDERED IN THIS STEP

          CREEP AND SWELLING EFFECTS WILL BE IGNORED.

          LARGE DISPLACEMENT THEORY WILL BE USED

          UNSYMMETRIC MATRIX STORAGE AND SOLUTION WILL BE USED
  
                   M E M O R Y   E S T I M A T E
  
 PROCESS      FLOATING PT       MINIMUM MEMORY        MEMORY TO
              OPERATIONS           REQUIRED          MINIMIZE I/O
             PER ITERATION           (MB)               (MB)
  
     1          7.34E+11              275               4220
  
 NOTE:
      (1) SINCE ABAQUS DOES NOT PRE-ALLOCATE MEMORY AND ONLY ALLOCATES MEMORY AS NEEDED DURING THE ANALYSIS,
          THE MEMORY REQUIREMENT PRINTED HERE CAN ONLY BE VIEWED AS A GENERAL GUIDELINE BASED ON THE BEST
          KNOWLEDGE AVAILABLE AT THE BEGINNING OF A STEP BEFORE THE SOLUTION PROCESS HAS BEGUN.
      (2) THE ESTIMATE IS NORMALLY UPDATED AT THE BEGINNING OF EVERY STEP. IT IS THE MAXIMUM VALUE OF THE
          ESTIMATE FROM THE CURRENT STEP TO THE LAST STEP OF THE ANALYSIS, WITH UNSYMMETRIC SOLUTION TAKEN
          INTO ACCOUNT IF APPLICABLE. 
      (3) SINCE THE ESTIMATE IS BASED ON THE ACTIVE DEGREES OF FREEDOM IN THE FIRST ITERATION OF THE 
          CURRENT STEP, THE MEMORY ESTIMATE MIGHT BE SIGNIFICANTLY DIFFERENT THAN ACTUAL USAGE FOR 
          PROBLEMS WITH SUBSTANTIAL CHANGES IN ACTIVE DEGREES OF FREEDOM BETWEEN STEPS (OR EVEN WITHIN
          THE SAME STEP). EXAMPLES ARE: PROBLEMS WITH SIGNIFICANT CONTACT CHANGES, PROBLEMS WITH MODEL
          CHANGE, PROBLEMS WITH BOTH STATIC STEP AND STEADY STATE DYNAMIC PROCEDURES WHERE ACOUSTIC 
          ELEMENTS WILL ONLY BE ACTIVATED IN THE STEADY STATE DYNAMIC STEPS.
      (4) FOR MULTI-PROCESS EXECUTION, THE ESTIMATED VALUE OF FLOATING POINT OPERATIONS FOR EACH PROCESS
          IS BASED ON AN INITIAL SCHEDULING OF OPERATIONS AND MIGHT NOT REFLECT THE ACTUAL FLOATING 
          POINT OPERATIONS COMPLETED ON EACH PROCESS. OPERATIONS ARE DYNAMICALLY BALANCED DURING EXECUTION, 
          SO THE ACTUAL BALANCE OF OPERATIONS BETWEEN PROCESSES IS EXPECTED TO BE BETTER THAN THE ESTIMATE
          PRINTED HERE.
      (5) THE UPPER LIMIT OF MEMORY THAT CAN BE ALLOCATED BY ABAQUS WILL IN GENERAL DEPEND ON THE VALUE OF
          THE "MEMORY" PARAMETER AND THE AMOUNT OF PHYSICAL MEMORY AVAILABLE ON THE MACHINE. PLEASE SEE
          THE "ABAQUS ANALYSIS USER'S MANUAL" FOR MORE DETAILS. THE ACTUAL USAGE OF MEMORY AND OF DISK
          SPACE FOR SCRATCH DATA WILL DEPEND ON THIS UPPER LIMIT AS WELL AS THE MEMORY REQUIRED TO MINIMIZE
          I/O. IF THE MEMORY UPPER LIMIT IS GREATER THAN THE MEMORY REQUIRED TO MINIMIZE I/O, THEN THE ACTUAL
          MEMORY USAGE WILL BE CLOSE TO THE ESTIMATED "MEMORY TO MINIMIZE I/O" VALUE, AND THE SCRATCH DISK
          USAGE WILL BE CLOSE-TO-ZERO; OTHERWISE, THE ACTUAL MEMORY USED WILL BE CLOSE TO THE PREVIOUSLY
          MENTIONED MEMORY LIMIT, AND THE SCRATCH DISK USAGE WILL BE ROUGHLY PROPORTIONAL TO THE DIFFERENCE
          BETWEEN THE ESTIMATED "MEMORY TO MINIMIZE I/O" AND THE MEMORY UPPER LIMIT. HOWEVER ACCURATE
          ESTIMATE OF THE SCRATCH DISK SPACE IS NOT POSSIBLE.
      (6) USING "*RESTART, WRITE" CAN GENERATE A LARGE AMOUNT OF DATA WRITTEN IN THE WORK DIRECTORY.


          THE ANALYSIS HAS BEEN COMPLETED



                              ANALYSIS COMPLETE
                              WITH      6 WARNING MESSAGES ON THE DAT FILE



     JOB TIME SUMMARY
       USER TIME (SEC)      =     3.31E+03
       SYSTEM TIME (SEC)    =      46.    
       TOTAL CPU TIME (SEC) =     3.35E+03
       WALLCLOCK TIME (SEC) =         1663
