1

   Abaqus 2023.HF4                                  Date 30-Jun-2024   Time 22:06:38
   For use by AALTO UNIVERSITY under license from Dassault Systemes or its subsidiary.

                                                                                 
                                                                                 
 STEP    1     INCREMENT     1     STEP TIME    0.00    


                        S T E P       1     C O U P L E D - T E M P E R A T U R E - D I S P L A C E M E N T   A N A L Y S I S


                                                                                          

     AUTOMATIC TIME CONTROL WITH -
          A SUGGESTED INITIAL TIME INCREMENT OF                 10.0    
          AND A TOTAL TIME PERIOD OF                           1.000E+03
          THE MINIMUM TIME INCREMENT ALLOWED IS                1.000E-02
          THE MAXIMUM TIME INCREMENT ALLOWED IS                 10.0    

          CREEP AND SWELLING EFFECTS ARE OMITTED IN THIS STEP

     THE SIZE OF THE TIME INCREMENT IS CONTROLLED BY -
          THE TEMPERATURE CHANGE PER INCREMENT NOT EXCEEDING            1.00    
          THE RATE DEPENDENCY WILL BE CONSIDERED IN THIS STEP

          CREEP AND SWELLING EFFECTS WILL BE IGNORED.

 CONVERGENCE TOLERANCE PARAMETERS FOR FORCE    
     CRITERION FOR RESIDUAL FORCE     FOR A NONLINEAR PROBLEM          5.000E-03
     CRITERION FOR DISP.    CORRECTION IN A NONLINEAR PROBLEM          1.000E-02
     INITIAL VALUE OF TIME AVERAGE FORCE                               1.000E-02
     AVERAGE FORCE     IS TIME AVERAGE FORCE    
     ALTERNATE CRIT. FOR RESIDUAL FORCE     FOR A NONLINEAR PROBLEM    2.000E-02
     CRITERION FOR ZERO FORCE     RELATIVE TO TIME AVRG. FORCE         1.000E-05
     CRITERION FOR RESIDUAL FORCE     WHEN THERE IS ZERO FLUX          1.000E-05
     CRITERION FOR DISP.    CORRECTION WHEN THERE IS ZERO FLUX         1.000E-03
     CRITERION FOR RESIDUAL FORCE     FOR A LINEAR INCREMENT           1.000E-08
     FIELD CONVERSION RATIO                                             1.00    
     CRITERION FOR ZERO FORCE     REL. TO TIME AVRG. MAX. FORCE        1.000E-05
     CRITERION FOR ZERO DISP.    RELATIVE TO CHARACTERISTIC LENGTH     1.000E-08

 CONVERGENCE TOLERANCE PARAMETERS FOR HEAT FLUX
     CRITERION FOR RESIDUAL HEAT FLUX FOR A NONLINEAR PROBLEM          5.000E-03
     CRITERION FOR TEMP.    CORRECTION IN A NONLINEAR PROBLEM          1.000E-02
     INITIAL VALUE OF TIME AVERAGE HEAT FLUX                           1.000E-02
     AVERAGE HEAT FLUX IS TIME AVERAGE HEAT FLUX
     ALTERNATE CRIT. FOR RESIDUAL HEAT FLUX FOR A NONLINEAR PROBLEM    2.000E-02
     CRITERION FOR ZERO HEAT FLUX RELATIVE TO TIME AVRG. HEAT FLUX     1.000E-05
     CRITERION FOR RESIDUAL HEAT FLUX WHEN THERE IS ZERO FLUX          1.000E-05
     CRITERION FOR TEMP.    CORRECTION WHEN THERE IS ZERO FLUX         1.000E-03
     CRITERION FOR RESIDUAL HEAT FLUX FOR A LINEAR INCREMENT           1.000E-08
     FIELD CONVERSION RATIO                                             1.00    
     CRITERION FOR ZERO HEAT FLUX REL. TO TIME AVRG. MAX. HEAT FLUX    1.000E-05

     VOLUMETRIC STRAIN COMPATIBILITY TOLERANCE FOR HYBRID SOLIDS       1.000E-05
     AXIAL STRAIN COMPATIBILITY TOLERANCE FOR HYBRID BEAMS             1.000E-05
     TRANS. SHEAR STRAIN COMPATIBILITY TOLERANCE FOR HYBRID BEAMS      1.000E-05
     SOFT CONTACT CONSTRAINT COMPATIBILITY TOLERANCE FOR P>P0          5.000E-03
     SOFT CONTACT CONSTRAINT COMPATIBILITY TOLERANCE FOR P=0.0         0.100    
     CONTACT FORCE ERROR TOLERANCE FOR CONVERT SDI=YES                 1.00    
     DISPLACEMENT COMPATIBILITY TOLERANCE FOR DCOUP ELEMENTS           1.000E-05
     ROTATION COMPATIBILITY TOLERANCE FOR DCOUP ELEMENTS               1.000E-05

 EQUILIBRIUM WILL BE CHECKED FOR SEVERE DISCONTINUITY ITERATIONS

 TIME INCREMENTATION CONTROL PARAMETERS:
     FIRST EQUILIBRIUM ITERATION FOR CONSECUTIVE DIVERGENCE CHECK              4
     EQUILIBRIUM ITERATION AT WHICH LOG. CONVERGENCE RATE CHECK BEGINS         8
     EQUILIBRIUM ITERATION AFTER WHICH ALTERNATE RESIDUAL IS USED              9
     MAXIMUM EQUILIBRIUM ITERATIONS ALLOWED                                   16
     EQUILIBRIUM ITERATION COUNT FOR CUT-BACK IN NEXT INCREMENT               10
     MAXIMUM EQUILIB. ITERS IN TWO INCREMENTS FOR TIME INCREMENT INCREASE      4
     MAXIMUM ITERATIONS FOR SEVERE DISCONTINUITIES                            50
     MAXIMUM ATTEMPTS ALLOWED IN AN INCREMENT                                  5
     MAXIMUM DISCON. ITERS IN TWO INCREMENTS FOR TIME INCREMENT INCREASE      50
     MAXIMUM CONTACT AUGMENTATIONS FOR *SURFACE BEHAVIOR,AUGMENTED LAGRANGE   50
     CONSECUTIVE INCS MEETING TIME INTEG. TOL. FOR TIME INC. INCREASE          3
     CUT-BACK FACTOR AFTER DIVERGENCE                                 0.2500    
     CUT-BACK FACTOR FOR TOO SLOW CONVERGENCE                         0.5000    
     CUT-BACK FACTOR AFTER TOO MANY EQUILIBRIUM ITERATIONS            0.7500    
     CUT-BACK FACTOR AFTER TOO MANY SEVERE DISCONTINUITY ITERATIONS   0.2500    
     CUT-BACK FACTOR AFTER PROBLEMS IN ELEMENT ASSEMBLY               0.2500    
     INCREASE FACTOR AFTER TWO INCREMENTS THAT CONVERGE QUICKLY        1.500    
     MAX. TIME INCREMENT INCREASE FACTOR ALLOWED                       1.500    
     MAX. TIME INCREMENT INCREASE FACTOR ALLOWED (DYNAMICS)            1.250    
     MAX. TIME INCREMENT INCREASE FACTOR ALLOWED (DIFFUSION)           2.000    
     MINIMUM TIME INCREMENT RATIO FOR EXTRAPOLATION TO OCCUR          0.1000    
     CUT-BACK FACTOR WHEN TIME INTEGRATION ACCURACY TOL. EXCEEDED     0.8500    
     MAX. RATIO OF TIME INTEG. MEASURE TO TOL. FOR TIME INC. INCREASE 0.7500    
     INCREASE FACTOR FOR TIME INCREMENT WHEN POSSIBLE                 0.8000    
     MIN. TIME INC. INCREASE FACTOR IN LINEAR TRANSIENT PROBLEMS      0.9500    
     MAX. RATIO OF TIME INCREMENT TO STABILITY LIMIT                   1.000    
     FRACTION OF STABILITY LIMIT FOR NEW TIME INCREMENT               0.9500    
     TIME INCREMENT INCREASE FACTOR BEFORE A TIME POINT                1.000    
     GLOBAL STABILIZATION CONTROL IS NOT USED

          PRINT OF INCREMENT NUMBER, TIME, ETC., EVERY    1  INCREMENTS

     THE MAXIMUM NUMBER OF INCREMENTS IN THIS STEP IS                  100000

          LARGE DISPLACEMENT THEORY WILL BE USED

          UNSYMMETRIC MATRIX STORAGE AND SOLUTION WILL BE USED

     LINEAR EXTRAPOLATION WILL BE USED

     CHARACTERISTIC ELEMENT LENGTH     2.201E-04

     DETAILS REGARDING ACTUAL SOLUTION WAVEFRONT REQUESTED

     DETAILED OUTPUT OF DIAGNOSTICS TO DATABASE REQUESTED

     PRINT OF INCREMENT NUMBER, TIME, ETC., TO THE MESSAGE FILE EVERY     1  INCREMENTS

     ELEMENT OPERATIONS WILL BE CARRIED OUT IN PARALLEL USING   8 THREADS ON 1 DOMAIN

     PARALLEL CONTACT TRACKING ENABLED


     COLLECTING MODEL CONSTRAINT INFORMATION FOR OVERCONSTRAINT CHECKS

     COLLECTING STEP CONSTRAINT INFORMATION FOR OVERCONSTRAINT CHECKS


  INCREMENT     1 STARTS. ATTEMPT NUMBER  1, TIME INCREMENT   10.0    
 
     INITIAL ELEMENT LOAD BALANCE
            DOMAIN    1     THREAD    NUMBER OF ELEMENTS
                              1            6752
                              2            6936
                              3            6696
                              4            6752
                              5            6944
                              6            7312
                              7            7192
                              8            6824
 
	UNSYMMETRIC NEW DIRECT SPARSE SOLVER RUNNING ON
 	1 HOST x 1 MPI RANK PER HOST x 8 THREADS PER RANK
        NUMBER OF EQUATIONS:  193158
        NUMBER OF RHS:        1
        NUMBER OF FLOPS:      3.029e+11
        SOLVER ELAPSED TIME:  1.8s

               CONVERGENCE CHECKS FOR EQUILIBRIUM ITERATION     1


 AVERAGE FORCE                      9.580E-02   TIME AVG. FORCE       9.580E-02
 LARGEST SCALED RESIDUAL FORCE     -2.323E-03   AT NODE      12828   DOF  3
   INSTANCE: CHD2-M-1                                                                        
  CORRESPONDING RESIDUAL FORCE     -2.323E-03
 LARGEST INCREMENT OF DISP.         1.900E-05   AT NODE      11647   DOF  2
   INSTANCE: CHD2-M-1                                                                        
 LARGEST CORRECTION TO DISP.        1.900E-05   AT NODE      11647   DOF  2
   INSTANCE: CHD2-M-1                                                                        
          FORCE     EQUILIBRIUM NOT ACHIEVED WITHIN TOLERANCE.

 AVERAGE HEAT FLUX                   0.00       TIME AVG. HEAT FLUX   1.000E-02
 ALL HEAT FLUX RESIDUALS ARE ZERO
 ALL TEMP.    INCREMENTS ARE ZERO
 ALL CORRECTION TO TEMP.    ARE ZERO
          THERE IS ZERO HEAT FLUX EVERYWHERE
 
	UNSYMMETRIC NEW DIRECT SPARSE SOLVER RUNNING ON
 	1 HOST x 1 MPI RANK PER HOST x 8 THREADS PER RANK
        NUMBER OF EQUATIONS:  193158
        NUMBER OF RHS:        1
        NUMBER OF FLOPS:      3.029e+11
        SOLVER ELAPSED TIME:  1.7s

               CONVERGENCE CHECKS FOR EQUILIBRIUM ITERATION     2


 AVERAGE FORCE                      9.579E-02   TIME AVG. FORCE       9.579E-02
 LARGEST SCALED RESIDUAL FORCE     -3.777E-08   AT NODE      11849   DOF  2
   INSTANCE: CHD2-M-1                                                                        
  CORRESPONDING RESIDUAL FORCE     -3.777E-08
 LARGEST INCREMENT OF DISP.         1.900E-05   AT NODE      11647   DOF  2
   INSTANCE: CHD2-M-1                                                                        
 LARGEST CORRECTION TO DISP.        1.112E-10   AT NODE      12970   DOF  2
   INSTANCE: CHD2-M-1                                                                        
          THE FORCE     EQUILIBRIUM EQUATIONS HAVE CONVERGED

 AVERAGE HEAT FLUX                   0.00       TIME AVG. HEAT FLUX   1.000E-02
 ALL HEAT FLUX RESIDUALS ARE ZERO
 ALL TEMP.    INCREMENTS ARE ZERO
 ALL CORRECTION TO TEMP.    ARE ZERO
          THERE IS ZERO HEAT FLUX EVERYWHERE

 MAXIMUM NON-PRESCRIBED INCREMENT IN TEMPERATURE IS    0.00    

 ITERATION SUMMARY FOR THE INCREMENT:   2 TOTAL ITERATIONS, OF WHICH
   0 ARE SEVERE DISCONTINUITY ITERATIONS AND  2 ARE EQUILIBRIUM ITERATIONS.

 TIME INCREMENT COMPLETED   10.0    ,  FRACTION OF STEP COMPLETED  1.000E-02
 STEP TIME COMPLETED        10.0    ,  TOTAL TIME COMPLETED         10.0    


  INCREMENT     2 STARTS. ATTEMPT NUMBER  1, TIME INCREMENT   10.0    
 
	UNSYMMETRIC NEW DIRECT SPARSE SOLVER RUNNING ON
 	1 HOST x 1 MPI RANK PER HOST x 8 THREADS PER RANK
        NUMBER OF EQUATIONS:  193158
        NUMBER OF RHS:        1
        NUMBER OF FLOPS:      3.029e+11
        SOLVER ELAPSED TIME:  1.7s

               CONVERGENCE CHECKS FOR EQUILIBRIUM ITERATION     1


 AVERAGE FORCE                      0.242       TIME AVG. FORCE       0.169    
 LARGEST SCALED RESIDUAL FORCE     -8.677E-08   AT NODE      11878   DOF  2
   INSTANCE: CHD2-M-1                                                                        
  CORRESPONDING RESIDUAL FORCE     -8.677E-08
 LARGEST INCREMENT OF DISP.         1.900E-05   AT NODE      11647   DOF  2
   INSTANCE: CHD2-M-1                                                                        
 LARGEST CORRECTION TO DISP.        2.117E-10   AT NODE      12970   DOF  2
   INSTANCE: CHD2-M-1                                                                        
          THE FORCE     EQUILIBRIUM EQUATIONS HAVE CONVERGED

 AVERAGE HEAT FLUX                   0.00       TIME AVG. HEAT FLUX   1.000E-02
 ALL HEAT FLUX RESIDUALS ARE ZERO
 ALL TEMP.    INCREMENTS ARE ZERO
 ALL CORRECTION TO TEMP.    ARE ZERO
          THERE IS ZERO HEAT FLUX EVERYWHERE

 MAXIMUM NON-PRESCRIBED INCREMENT IN TEMPERATURE IS    0.00    

 ITERATION SUMMARY FOR THE INCREMENT:   1 TOTAL ITERATIONS, OF WHICH
   0 ARE SEVERE DISCONTINUITY ITERATIONS AND  1 ARE EQUILIBRIUM ITERATIONS.

 TIME INCREMENT COMPLETED   10.0    ,  FRACTION OF STEP COMPLETED  2.000E-02
 STEP TIME COMPLETED        20.0    ,  TOTAL TIME COMPLETED         20.0    


  INCREMENT     3 STARTS. ATTEMPT NUMBER  1, TIME INCREMENT   10.0    
 
	UNSYMMETRIC NEW DIRECT SPARSE SOLVER RUNNING ON
 	1 HOST x 1 MPI RANK PER HOST x 8 THREADS PER RANK
        NUMBER OF EQUATIONS:  193158
        NUMBER OF RHS:        1
        NUMBER OF FLOPS:      3.029e+11
        SOLVER ELAPSED TIME:  1.9s

               CONVERGENCE CHECKS FOR EQUILIBRIUM ITERATION     1


 AVERAGE FORCE                      0.362       TIME AVG. FORCE       0.233    
 LARGEST SCALED RESIDUAL FORCE     -1.543E-07   AT NODE      11795   DOF  2
   INSTANCE: CHD2-M-1                                                                        
  CORRESPONDING RESIDUAL FORCE     -1.543E-07
 LARGEST INCREMENT OF DISP.         1.900E-05   AT NODE      11647   DOF  2
   INSTANCE: CHD2-M-1                                                                        
 LARGEST CORRECTION TO DISP.        2.116E-10   AT NODE      12971   DOF  2
   INSTANCE: CHD2-M-1                                                                        
          THE FORCE     EQUILIBRIUM EQUATIONS HAVE CONVERGED

 AVERAGE HEAT FLUX                   0.00       TIME AVG. HEAT FLUX   1.000E-02
 ALL HEAT FLUX RESIDUALS ARE ZERO
 ALL TEMP.    INCREMENTS ARE ZERO
 ALL CORRECTION TO TEMP.    ARE ZERO
          THERE IS ZERO HEAT FLUX EVERYWHERE

 MAXIMUM NON-PRESCRIBED INCREMENT IN TEMPERATURE IS    0.00    

 ITERATION SUMMARY FOR THE INCREMENT:   1 TOTAL ITERATIONS, OF WHICH
   0 ARE SEVERE DISCONTINUITY ITERATIONS AND  1 ARE EQUILIBRIUM ITERATIONS.

 TIME INCREMENT COMPLETED   10.0    ,  FRACTION OF STEP COMPLETED  3.000E-02
 STEP TIME COMPLETED        30.0    ,  TOTAL TIME COMPLETED         30.0    


  INCREMENT     4 STARTS. ATTEMPT NUMBER  1, TIME INCREMENT   10.0    
 
	UNSYMMETRIC NEW DIRECT SPARSE SOLVER RUNNING ON
 	1 HOST x 1 MPI RANK PER HOST x 8 THREADS PER RANK
        NUMBER OF EQUATIONS:  193158
        NUMBER OF RHS:        1
        NUMBER OF FLOPS:      3.029e+11
        SOLVER ELAPSED TIME:  1.9s

               CONVERGENCE CHECKS FOR EQUILIBRIUM ITERATION     1


 AVERAGE FORCE                      0.483       TIME AVG. FORCE       0.296    
 LARGEST SCALED RESIDUAL FORCE     -2.218E-07   AT NODE      11841   DOF  2
   INSTANCE: CHD2-M-1                                                                        
  CORRESPONDING RESIDUAL FORCE     -2.218E-07
 LARGEST INCREMENT OF DISP.         1.900E-05   AT NODE      11647   DOF  2
   INSTANCE: CHD2-M-1                                                                        
 LARGEST CORRECTION TO DISP.        2.116E-10   AT NODE      12970   DOF  2
   INSTANCE: CHD2-M-1                                                                        
          THE FORCE     EQUILIBRIUM EQUATIONS HAVE CONVERGED

 AVERAGE HEAT FLUX                   0.00       TIME AVG. HEAT FLUX   1.000E-02
 ALL HEAT FLUX RESIDUALS ARE ZERO
 ALL TEMP.    INCREMENTS ARE ZERO
 ALL CORRECTION TO TEMP.    ARE ZERO
          THERE IS ZERO HEAT FLUX EVERYWHERE

 MAXIMUM NON-PRESCRIBED INCREMENT IN TEMPERATURE IS    0.00    

 ITERATION SUMMARY FOR THE INCREMENT:   1 TOTAL ITERATIONS, OF WHICH
   0 ARE SEVERE DISCONTINUITY ITERATIONS AND  1 ARE EQUILIBRIUM ITERATIONS.

 TIME INCREMENT COMPLETED   10.0    ,  FRACTION OF STEP COMPLETED  4.000E-02
 STEP TIME COMPLETED        40.0    ,  TOTAL TIME COMPLETED         40.0    


  INCREMENT     5 STARTS. ATTEMPT NUMBER  1, TIME INCREMENT   10.0    
 
	UNSYMMETRIC NEW DIRECT SPARSE SOLVER RUNNING ON
 	1 HOST x 1 MPI RANK PER HOST x 8 THREADS PER RANK
        NUMBER OF EQUATIONS:  193158
        NUMBER OF RHS:        1
        NUMBER OF FLOPS:      3.029e+11
        SOLVER ELAPSED TIME:  2.5s

               CONVERGENCE CHECKS FOR EQUILIBRIUM ITERATION     1


 AVERAGE FORCE                      0.604       TIME AVG. FORCE       0.357    
 LARGEST SCALED RESIDUAL FORCE     -2.893E-07   AT NODE      11795   DOF  2
   INSTANCE: CHD2-M-1                                                                        
  CORRESPONDING RESIDUAL FORCE     -2.893E-07
 LARGEST INCREMENT OF DISP.         1.900E-05   AT NODE      11647   DOF  2
   INSTANCE: CHD2-M-1                                                                        
 LARGEST CORRECTION TO DISP.        2.116E-10   AT NODE      12971   DOF  2
   INSTANCE: CHD2-M-1                                                                        
          THE FORCE     EQUILIBRIUM EQUATIONS HAVE CONVERGED

 AVERAGE HEAT FLUX                   0.00       TIME AVG. HEAT FLUX   1.000E-02
 ALL HEAT FLUX RESIDUALS ARE ZERO
 ALL TEMP.    INCREMENTS ARE ZERO
 ALL CORRECTION TO TEMP.    ARE ZERO
          THERE IS ZERO HEAT FLUX EVERYWHERE

 MAXIMUM NON-PRESCRIBED INCREMENT IN TEMPERATURE IS    0.00    

 ITERATION SUMMARY FOR THE INCREMENT:   1 TOTAL ITERATIONS, OF WHICH
   0 ARE SEVERE DISCONTINUITY ITERATIONS AND  1 ARE EQUILIBRIUM ITERATIONS.

 TIME INCREMENT COMPLETED   10.0    ,  FRACTION OF STEP COMPLETED  5.000E-02
 STEP TIME COMPLETED        50.0    ,  TOTAL TIME COMPLETED         50.0    


  INCREMENT     6 STARTS. ATTEMPT NUMBER  1, TIME INCREMENT   10.0    
 
	UNSYMMETRIC NEW DIRECT SPARSE SOLVER RUNNING ON
 	1 HOST x 1 MPI RANK PER HOST x 8 THREADS PER RANK
        NUMBER OF EQUATIONS:  193158
        NUMBER OF RHS:        1
        NUMBER OF FLOPS:      3.029e+11
        SOLVER ELAPSED TIME:  2.6s

               CONVERGENCE CHECKS FOR EQUILIBRIUM ITERATION     1


 AVERAGE FORCE                      0.725       TIME AVG. FORCE       0.419    
 LARGEST SCALED RESIDUAL FORCE     -3.567E-07   AT NODE      11841   DOF  2
   INSTANCE: CHD2-M-1                                                                        
  CORRESPONDING RESIDUAL FORCE     -3.567E-07
 LARGEST INCREMENT OF DISP.         1.900E-05   AT NODE      11647   DOF  2
   INSTANCE: CHD2-M-1                                                                        
 LARGEST CORRECTION TO DISP.        2.116E-10   AT NODE      12970   DOF  2
   INSTANCE: CHD2-M-1                                                                        
          THE FORCE     EQUILIBRIUM EQUATIONS HAVE CONVERGED

 AVERAGE HEAT FLUX                   0.00       TIME AVG. HEAT FLUX   1.000E-02
 ALL HEAT FLUX RESIDUALS ARE ZERO
 ALL TEMP.    INCREMENTS ARE ZERO
 ALL CORRECTION TO TEMP.    ARE ZERO
          THERE IS ZERO HEAT FLUX EVERYWHERE

 MAXIMUM NON-PRESCRIBED INCREMENT IN TEMPERATURE IS    0.00    

 ITERATION SUMMARY FOR THE INCREMENT:   1 TOTAL ITERATIONS, OF WHICH
   0 ARE SEVERE DISCONTINUITY ITERATIONS AND  1 ARE EQUILIBRIUM ITERATIONS.

 TIME INCREMENT COMPLETED   10.0    ,  FRACTION OF STEP COMPLETED  6.000E-02
 STEP TIME COMPLETED        60.0    ,  TOTAL TIME COMPLETED         60.0    


  INCREMENT     7 STARTS. ATTEMPT NUMBER  1, TIME INCREMENT   10.0    
 
	UNSYMMETRIC NEW DIRECT SPARSE SOLVER RUNNING ON
 	1 HOST x 1 MPI RANK PER HOST x 8 THREADS PER RANK
        NUMBER OF EQUATIONS:  193158
        NUMBER OF RHS:        1
        NUMBER OF FLOPS:      3.029e+11
        SOLVER ELAPSED TIME:  2.6s

               CONVERGENCE CHECKS FOR EQUILIBRIUM ITERATION     1


 AVERAGE FORCE                      0.845       TIME AVG. FORCE       0.480    
 LARGEST SCALED RESIDUAL FORCE     -4.241E-07   AT NODE      11795   DOF  2
   INSTANCE: CHD2-M-1                                                                        
  CORRESPONDING RESIDUAL FORCE     -4.241E-07
 LARGEST INCREMENT OF DISP.         1.900E-05   AT NODE      11647   DOF  2
   INSTANCE: CHD2-M-1                                                                        
 LARGEST CORRECTION TO DISP.        2.115E-10   AT NODE      12971   DOF  2
   INSTANCE: CHD2-M-1                                                                        
          THE FORCE     EQUILIBRIUM EQUATIONS HAVE CONVERGED

 AVERAGE HEAT FLUX                   0.00       TIME AVG. HEAT FLUX   1.000E-02
 ALL HEAT FLUX RESIDUALS ARE ZERO
 ALL TEMP.    INCREMENTS ARE ZERO
 ALL CORRECTION TO TEMP.    ARE ZERO
          THERE IS ZERO HEAT FLUX EVERYWHERE

 MAXIMUM NON-PRESCRIBED INCREMENT IN TEMPERATURE IS    0.00    

 ITERATION SUMMARY FOR THE INCREMENT:   1 TOTAL ITERATIONS, OF WHICH
   0 ARE SEVERE DISCONTINUITY ITERATIONS AND  1 ARE EQUILIBRIUM ITERATIONS.

 TIME INCREMENT COMPLETED   10.0    ,  FRACTION OF STEP COMPLETED  7.000E-02
 STEP TIME COMPLETED        70.0    ,  TOTAL TIME COMPLETED         70.0    


  INCREMENT     8 STARTS. ATTEMPT NUMBER  1, TIME INCREMENT   10.0    
 
	UNSYMMETRIC NEW DIRECT SPARSE SOLVER RUNNING ON
 	1 HOST x 1 MPI RANK PER HOST x 8 THREADS PER RANK
        NUMBER OF EQUATIONS:  193158
        NUMBER OF RHS:        1
        NUMBER OF FLOPS:      3.029e+11
        SOLVER ELAPSED TIME:  2.6s

               CONVERGENCE CHECKS FOR EQUILIBRIUM ITERATION     1


 AVERAGE FORCE                      0.966       TIME AVG. FORCE       0.540    
 LARGEST SCALED RESIDUAL FORCE     -4.915E-07   AT NODE      11841   DOF  2
   INSTANCE: CHD2-M-1                                                                        
  CORRESPONDING RESIDUAL FORCE     -4.915E-07
 LARGEST INCREMENT OF DISP.         1.900E-05   AT NODE      11647   DOF  2
   INSTANCE: CHD2-M-1                                                                        
 LARGEST CORRECTION TO DISP.        2.115E-10   AT NODE      12970   DOF  2
   INSTANCE: CHD2-M-1                                                                        
          THE FORCE     EQUILIBRIUM EQUATIONS HAVE CONVERGED

 AVERAGE HEAT FLUX                   0.00       TIME AVG. HEAT FLUX   1.000E-02
 ALL HEAT FLUX RESIDUALS ARE ZERO
 ALL TEMP.    INCREMENTS ARE ZERO
 ALL CORRECTION TO TEMP.    ARE ZERO
          THERE IS ZERO HEAT FLUX EVERYWHERE

 MAXIMUM NON-PRESCRIBED INCREMENT IN TEMPERATURE IS    0.00    

 ITERATION SUMMARY FOR THE INCREMENT:   1 TOTAL ITERATIONS, OF WHICH
   0 ARE SEVERE DISCONTINUITY ITERATIONS AND  1 ARE EQUILIBRIUM ITERATIONS.

 TIME INCREMENT COMPLETED   10.0    ,  FRACTION OF STEP COMPLETED  8.000E-02
 STEP TIME COMPLETED        80.0    ,  TOTAL TIME COMPLETED         80.0    


  INCREMENT     9 STARTS. ATTEMPT NUMBER  1, TIME INCREMENT   10.0    
 
	UNSYMMETRIC NEW DIRECT SPARSE SOLVER RUNNING ON
 	1 HOST x 1 MPI RANK PER HOST x 8 THREADS PER RANK
        NUMBER OF EQUATIONS:  193158
        NUMBER OF RHS:        1
        NUMBER OF FLOPS:      3.029e+11
        SOLVER ELAPSED TIME:  2.6s

               CONVERGENCE CHECKS FOR EQUILIBRIUM ITERATION     1


 AVERAGE FORCE                       1.09       TIME AVG. FORCE       0.601    
 LARGEST SCALED RESIDUAL FORCE     -5.588E-07   AT NODE      11841   DOF  2
   INSTANCE: CHD2-M-1                                                                        
  CORRESPONDING RESIDUAL FORCE     -5.588E-07
 LARGEST INCREMENT OF DISP.         1.900E-05   AT NODE      11647   DOF  2
   INSTANCE: CHD2-M-1                                                                        
 LARGEST CORRECTION TO DISP.        2.115E-10   AT NODE      12971   DOF  2
   INSTANCE: CHD2-M-1                                                                        
          THE FORCE     EQUILIBRIUM EQUATIONS HAVE CONVERGED

 AVERAGE HEAT FLUX                   0.00       TIME AVG. HEAT FLUX   1.000E-02
 ALL HEAT FLUX RESIDUALS ARE ZERO
 ALL TEMP.    INCREMENTS ARE ZERO
 ALL CORRECTION TO TEMP.    ARE ZERO
          THERE IS ZERO HEAT FLUX EVERYWHERE

 MAXIMUM NON-PRESCRIBED INCREMENT IN TEMPERATURE IS    0.00    

 ITERATION SUMMARY FOR THE INCREMENT:   1 TOTAL ITERATIONS, OF WHICH
   0 ARE SEVERE DISCONTINUITY ITERATIONS AND  1 ARE EQUILIBRIUM ITERATIONS.

 TIME INCREMENT COMPLETED   10.0    ,  FRACTION OF STEP COMPLETED  9.000E-02
 STEP TIME COMPLETED        90.0    ,  TOTAL TIME COMPLETED         90.0    


  INCREMENT    10 STARTS. ATTEMPT NUMBER  1, TIME INCREMENT   10.0    
 
	UNSYMMETRIC NEW DIRECT SPARSE SOLVER RUNNING ON
 	1 HOST x 1 MPI RANK PER HOST x 8 THREADS PER RANK
        NUMBER OF EQUATIONS:  193158
        NUMBER OF RHS:        1
        NUMBER OF FLOPS:      3.029e+11
        SOLVER ELAPSED TIME:  2.6s

               CONVERGENCE CHECKS FOR EQUILIBRIUM ITERATION     1


 AVERAGE FORCE                       1.21       TIME AVG. FORCE       0.662    
 LARGEST SCALED RESIDUAL FORCE     -6.261E-07   AT NODE      11841   DOF  2
   INSTANCE: CHD2-M-1                                                                        
  CORRESPONDING RESIDUAL FORCE     -6.261E-07
 LARGEST INCREMENT OF DISP.         1.900E-05   AT NODE      11647   DOF  2
   INSTANCE: CHD2-M-1                                                                        
 LARGEST CORRECTION TO DISP.        2.115E-10   AT NODE      12971   DOF  2
   INSTANCE: CHD2-M-1                                                                        
          THE FORCE     EQUILIBRIUM EQUATIONS HAVE CONVERGED

 AVERAGE HEAT FLUX                   0.00       TIME AVG. HEAT FLUX   1.000E-02
 ALL HEAT FLUX RESIDUALS ARE ZERO
 ALL TEMP.    INCREMENTS ARE ZERO
 ALL CORRECTION TO TEMP.    ARE ZERO
          THERE IS ZERO HEAT FLUX EVERYWHERE

 MAXIMUM NON-PRESCRIBED INCREMENT IN TEMPERATURE IS    0.00    

 ITERATION SUMMARY FOR THE INCREMENT:   1 TOTAL ITERATIONS, OF WHICH
   0 ARE SEVERE DISCONTINUITY ITERATIONS AND  1 ARE EQUILIBRIUM ITERATIONS.

 TIME INCREMENT COMPLETED   10.0    ,  FRACTION OF STEP COMPLETED  0.100    
 STEP TIME COMPLETED        100.    ,  TOTAL TIME COMPLETED         100.    


  INCREMENT    11 STARTS. ATTEMPT NUMBER  1, TIME INCREMENT   10.0    
 
	UNSYMMETRIC NEW DIRECT SPARSE SOLVER RUNNING ON
 	1 HOST x 1 MPI RANK PER HOST x 8 THREADS PER RANK
        NUMBER OF EQUATIONS:  193158
        NUMBER OF RHS:        1
        NUMBER OF FLOPS:      3.029e+11
        SOLVER ELAPSED TIME:  2.6s

               CONVERGENCE CHECKS FOR EQUILIBRIUM ITERATION     1


 AVERAGE FORCE                       1.33       TIME AVG. FORCE       0.722    
 LARGEST SCALED RESIDUAL FORCE     -6.933E-07   AT NODE      11795   DOF  2
   INSTANCE: CHD2-M-1                                                                        
  CORRESPONDING RESIDUAL FORCE     -6.933E-07
 LARGEST INCREMENT OF DISP.         1.900E-05   AT NODE      11647   DOF  2
   INSTANCE: CHD2-M-1                                                                        
 LARGEST CORRECTION TO DISP.        2.114E-10   AT NODE      12971   DOF  2
   INSTANCE: CHD2-M-1                                                                        
          THE FORCE     EQUILIBRIUM EQUATIONS HAVE CONVERGED

 AVERAGE HEAT FLUX                   0.00       TIME AVG. HEAT FLUX   1.000E-02
 ALL HEAT FLUX RESIDUALS ARE ZERO
 ALL TEMP.    INCREMENTS ARE ZERO
 ALL CORRECTION TO TEMP.    ARE ZERO
          THERE IS ZERO HEAT FLUX EVERYWHERE

 MAXIMUM NON-PRESCRIBED INCREMENT IN TEMPERATURE IS    0.00    

 ITERATION SUMMARY FOR THE INCREMENT:   1 TOTAL ITERATIONS, OF WHICH
   0 ARE SEVERE DISCONTINUITY ITERATIONS AND  1 ARE EQUILIBRIUM ITERATIONS.

 TIME INCREMENT COMPLETED   10.0    ,  FRACTION OF STEP COMPLETED  0.110    
 STEP TIME COMPLETED        110.    ,  TOTAL TIME COMPLETED         110.    


  INCREMENT    12 STARTS. ATTEMPT NUMBER  1, TIME INCREMENT   10.0    
 
	UNSYMMETRIC NEW DIRECT SPARSE SOLVER RUNNING ON
 	1 HOST x 1 MPI RANK PER HOST x 8 THREADS PER RANK
        NUMBER OF EQUATIONS:  193158
        NUMBER OF RHS:        1
        NUMBER OF FLOPS:      3.029e+11
        SOLVER ELAPSED TIME:  2.6s

               CONVERGENCE CHECKS FOR EQUILIBRIUM ITERATION     1


 AVERAGE FORCE                       1.45       TIME AVG. FORCE       0.783    
 LARGEST SCALED RESIDUAL FORCE     -7.605E-07   AT NODE      11841   DOF  2
   INSTANCE: CHD2-M-1                                                                        
  CORRESPONDING RESIDUAL FORCE     -7.605E-07
 LARGEST INCREMENT OF DISP.         1.900E-05   AT NODE      11647   DOF  2
   INSTANCE: CHD2-M-1                                                                        
 LARGEST CORRECTION TO DISP.        2.114E-10   AT NODE      12971   DOF  2
   INSTANCE: CHD2-M-1                                                                        
          THE FORCE     EQUILIBRIUM EQUATIONS HAVE CONVERGED

 AVERAGE HEAT FLUX                   0.00       TIME AVG. HEAT FLUX   1.000E-02
 ALL HEAT FLUX RESIDUALS ARE ZERO
 ALL TEMP.    INCREMENTS ARE ZERO
 ALL CORRECTION TO TEMP.    ARE ZERO
          THERE IS ZERO HEAT FLUX EVERYWHERE

 MAXIMUM NON-PRESCRIBED INCREMENT IN TEMPERATURE IS    0.00    

 ITERATION SUMMARY FOR THE INCREMENT:   1 TOTAL ITERATIONS, OF WHICH
   0 ARE SEVERE DISCONTINUITY ITERATIONS AND  1 ARE EQUILIBRIUM ITERATIONS.

 TIME INCREMENT COMPLETED   10.0    ,  FRACTION OF STEP COMPLETED  0.120    
 STEP TIME COMPLETED        120.    ,  TOTAL TIME COMPLETED         120.    


  INCREMENT    13 STARTS. ATTEMPT NUMBER  1, TIME INCREMENT   10.0    
 
	UNSYMMETRIC NEW DIRECT SPARSE SOLVER RUNNING ON
 	1 HOST x 1 MPI RANK PER HOST x 8 THREADS PER RANK
        NUMBER OF EQUATIONS:  193158
        NUMBER OF RHS:        1
        NUMBER OF FLOPS:      3.029e+11
        SOLVER ELAPSED TIME:  2.6s

               CONVERGENCE CHECKS FOR EQUILIBRIUM ITERATION     1


 AVERAGE FORCE                       1.57       TIME AVG. FORCE       0.843    
 LARGEST SCALED RESIDUAL FORCE     -8.277E-07   AT NODE      11795   DOF  2
   INSTANCE: CHD2-M-1                                                                        
  CORRESPONDING RESIDUAL FORCE     -8.277E-07
 LARGEST INCREMENT OF DISP.         1.900E-05   AT NODE      11647   DOF  2
   INSTANCE: CHD2-M-1                                                                        
 LARGEST CORRECTION TO DISP.        2.114E-10   AT NODE      12971   DOF  2
   INSTANCE: CHD2-M-1                                                                        
          THE FORCE     EQUILIBRIUM EQUATIONS HAVE CONVERGED

 AVERAGE HEAT FLUX                   0.00       TIME AVG. HEAT FLUX   1.000E-02
 ALL HEAT FLUX RESIDUALS ARE ZERO
 ALL TEMP.    INCREMENTS ARE ZERO
 ALL CORRECTION TO TEMP.    ARE ZERO
          THERE IS ZERO HEAT FLUX EVERYWHERE

 MAXIMUM NON-PRESCRIBED INCREMENT IN TEMPERATURE IS    0.00    

 ITERATION SUMMARY FOR THE INCREMENT:   1 TOTAL ITERATIONS, OF WHICH
   0 ARE SEVERE DISCONTINUITY ITERATIONS AND  1 ARE EQUILIBRIUM ITERATIONS.

 TIME INCREMENT COMPLETED   10.0    ,  FRACTION OF STEP COMPLETED  0.130    
 STEP TIME COMPLETED        130.    ,  TOTAL TIME COMPLETED         130.    


  INCREMENT    14 STARTS. ATTEMPT NUMBER  1, TIME INCREMENT   10.0    
 
	UNSYMMETRIC NEW DIRECT SPARSE SOLVER RUNNING ON
 	1 HOST x 1 MPI RANK PER HOST x 8 THREADS PER RANK
        NUMBER OF EQUATIONS:  193158
        NUMBER OF RHS:        1
        NUMBER OF FLOPS:      3.029e+11
        SOLVER ELAPSED TIME:  2.6s

               CONVERGENCE CHECKS FOR EQUILIBRIUM ITERATION     1


 AVERAGE FORCE                       1.69       TIME AVG. FORCE       0.904    
 LARGEST SCALED RESIDUAL FORCE     -8.948E-07   AT NODE      11795   DOF  2
   INSTANCE: CHD2-M-1                                                                        
  CORRESPONDING RESIDUAL FORCE     -8.948E-07
 LARGEST INCREMENT OF DISP.         1.900E-05   AT NODE      11647   DOF  2
   INSTANCE: CHD2-M-1                                                                        
 LARGEST CORRECTION TO DISP.        2.114E-10   AT NODE      12971   DOF  2
   INSTANCE: CHD2-M-1                                                                        
          THE FORCE     EQUILIBRIUM EQUATIONS HAVE CONVERGED

 AVERAGE HEAT FLUX                   0.00       TIME AVG. HEAT FLUX   1.000E-02
 ALL HEAT FLUX RESIDUALS ARE ZERO
 ALL TEMP.    INCREMENTS ARE ZERO
 ALL CORRECTION TO TEMP.    ARE ZERO
          THERE IS ZERO HEAT FLUX EVERYWHERE

 MAXIMUM NON-PRESCRIBED INCREMENT IN TEMPERATURE IS    0.00    

 ITERATION SUMMARY FOR THE INCREMENT:   1 TOTAL ITERATIONS, OF WHICH
   0 ARE SEVERE DISCONTINUITY ITERATIONS AND  1 ARE EQUILIBRIUM ITERATIONS.

 TIME INCREMENT COMPLETED   10.0    ,  FRACTION OF STEP COMPLETED  0.140    
 STEP TIME COMPLETED        140.    ,  TOTAL TIME COMPLETED         140.    


  INCREMENT    15 STARTS. ATTEMPT NUMBER  1, TIME INCREMENT   10.0    
 
	UNSYMMETRIC NEW DIRECT SPARSE SOLVER RUNNING ON
 	1 HOST x 1 MPI RANK PER HOST x 8 THREADS PER RANK
        NUMBER OF EQUATIONS:  193158
        NUMBER OF RHS:        1
        NUMBER OF FLOPS:      3.029e+11
        SOLVER ELAPSED TIME:  2.6s

               CONVERGENCE CHECKS FOR EQUILIBRIUM ITERATION     1


 AVERAGE FORCE                       1.81       TIME AVG. FORCE       0.964    
 LARGEST SCALED RESIDUAL FORCE     -9.619E-07   AT NODE      11841   DOF  2
   INSTANCE: CHD2-M-1                                                                        
  CORRESPONDING RESIDUAL FORCE     -9.619E-07
 LARGEST INCREMENT OF DISP.         1.900E-05   AT NODE      11647   DOF  2
   INSTANCE: CHD2-M-1                                                                        
 LARGEST CORRECTION TO DISP.        2.113E-10   AT NODE      12971   DOF  2
   INSTANCE: CHD2-M-1                                                                        
          THE FORCE     EQUILIBRIUM EQUATIONS HAVE CONVERGED

 AVERAGE HEAT FLUX                   0.00       TIME AVG. HEAT FLUX   1.000E-02
 ALL HEAT FLUX RESIDUALS ARE ZERO
 ALL TEMP.    INCREMENTS ARE ZERO
 ALL CORRECTION TO TEMP.    ARE ZERO
          THERE IS ZERO HEAT FLUX EVERYWHERE

 MAXIMUM NON-PRESCRIBED INCREMENT IN TEMPERATURE IS    0.00    

 ITERATION SUMMARY FOR THE INCREMENT:   1 TOTAL ITERATIONS, OF WHICH
   0 ARE SEVERE DISCONTINUITY ITERATIONS AND  1 ARE EQUILIBRIUM ITERATIONS.

 TIME INCREMENT COMPLETED   10.0    ,  FRACTION OF STEP COMPLETED  0.150    
 STEP TIME COMPLETED        150.    ,  TOTAL TIME COMPLETED         150.    


  INCREMENT    16 STARTS. ATTEMPT NUMBER  1, TIME INCREMENT   10.0    
 
	UNSYMMETRIC NEW DIRECT SPARSE SOLVER RUNNING ON
 	1 HOST x 1 MPI RANK PER HOST x 8 THREADS PER RANK
        NUMBER OF EQUATIONS:  193158
        NUMBER OF RHS:        1
        NUMBER OF FLOPS:      3.029e+11
        SOLVER ELAPSED TIME:  2.6s

               CONVERGENCE CHECKS FOR EQUILIBRIUM ITERATION     1


 AVERAGE FORCE                       1.93       TIME AVG. FORCE        1.02    
 LARGEST SCALED RESIDUAL FORCE     -1.029E-06   AT NODE      11841   DOF  2
   INSTANCE: CHD2-M-1                                                                        
  CORRESPONDING RESIDUAL FORCE     -1.029E-06
 LARGEST INCREMENT OF DISP.         1.900E-05   AT NODE      11647   DOF  2
   INSTANCE: CHD2-M-1                                                                        
 LARGEST CORRECTION TO DISP.        2.113E-10   AT NODE      12971   DOF  2
   INSTANCE: CHD2-M-1                                                                        
          THE FORCE     EQUILIBRIUM EQUATIONS HAVE CONVERGED

 AVERAGE HEAT FLUX                   0.00       TIME AVG. HEAT FLUX   1.000E-02
 ALL HEAT FLUX RESIDUALS ARE ZERO
 ALL TEMP.    INCREMENTS ARE ZERO
 ALL CORRECTION TO TEMP.    ARE ZERO
          THERE IS ZERO HEAT FLUX EVERYWHERE

 MAXIMUM NON-PRESCRIBED INCREMENT IN TEMPERATURE IS    0.00    

 ITERATION SUMMARY FOR THE INCREMENT:   1 TOTAL ITERATIONS, OF WHICH
   0 ARE SEVERE DISCONTINUITY ITERATIONS AND  1 ARE EQUILIBRIUM ITERATIONS.

 TIME INCREMENT COMPLETED   10.0    ,  FRACTION OF STEP COMPLETED  0.160    
 STEP TIME COMPLETED        160.    ,  TOTAL TIME COMPLETED         160.    


  INCREMENT    17 STARTS. ATTEMPT NUMBER  1, TIME INCREMENT   10.0    
 
	UNSYMMETRIC NEW DIRECT SPARSE SOLVER RUNNING ON
 	1 HOST x 1 MPI RANK PER HOST x 8 THREADS PER RANK
        NUMBER OF EQUATIONS:  193158
        NUMBER OF RHS:        1
        NUMBER OF FLOPS:      3.029e+11
        SOLVER ELAPSED TIME:  2.5s

               CONVERGENCE CHECKS FOR EQUILIBRIUM ITERATION     1


 AVERAGE FORCE                       2.05       TIME AVG. FORCE        1.08    
 LARGEST SCALED RESIDUAL FORCE     -4.976E-04   AT NODE      43666   DOF  2
   INSTANCE: CHD2-M-1                                                                        
  CORRESPONDING RESIDUAL FORCE     -4.976E-04
 LARGEST INCREMENT OF DISP.         1.900E-05   AT NODE      11647   DOF  2
   INSTANCE: CHD2-M-1                                                                        
 LARGEST CORRECTION TO DISP.       -7.480E-09   AT NODE      43633   DOF  2
   INSTANCE: CHD2-M-1                                                                        
          THE FORCE     EQUILIBRIUM EQUATIONS HAVE CONVERGED

 AVERAGE HEAT FLUX                   0.00       TIME AVG. HEAT FLUX   1.000E-02
 ALL HEAT FLUX RESIDUALS ARE ZERO
 ALL TEMP.    INCREMENTS ARE ZERO
 ALL CORRECTION TO TEMP.    ARE ZERO
          THERE IS ZERO HEAT FLUX EVERYWHERE

 MAXIMUM NON-PRESCRIBED INCREMENT IN TEMPERATURE IS    0.00    

 ITERATION SUMMARY FOR THE INCREMENT:   1 TOTAL ITERATIONS, OF WHICH
   0 ARE SEVERE DISCONTINUITY ITERATIONS AND  1 ARE EQUILIBRIUM ITERATIONS.

 TIME INCREMENT COMPLETED   10.0    ,  FRACTION OF STEP COMPLETED  0.170    
 STEP TIME COMPLETED        170.    ,  TOTAL TIME COMPLETED         170.    


  INCREMENT    18 STARTS. ATTEMPT NUMBER  1, TIME INCREMENT   10.0    
 
	UNSYMMETRIC NEW DIRECT SPARSE SOLVER RUNNING ON
 	1 HOST x 1 MPI RANK PER HOST x 8 THREADS PER RANK
        NUMBER OF EQUATIONS:  193158
        NUMBER OF RHS:        1
        NUMBER OF FLOPS:      3.029e+11
        SOLVER ELAPSED TIME:  2.5s

               CONVERGENCE CHECKS FOR EQUILIBRIUM ITERATION     1


 AVERAGE FORCE                       2.17       TIME AVG. FORCE        1.15    
 LARGEST SCALED RESIDUAL FORCE     -1.526E-03   AT NODE      49691   DOF  2
   INSTANCE: CHD2-M-1                                                                        
  CORRESPONDING RESIDUAL FORCE     -1.526E-03
 LARGEST INCREMENT OF DISP.         1.900E-05   AT NODE      11647   DOF  2
   INSTANCE: CHD2-M-1                                                                        
 LARGEST CORRECTION TO DISP.        8.917E-09   AT NODE      14936   DOF  3
   INSTANCE: CHD2-M-1                                                                        
          THE FORCE     EQUILIBRIUM EQUATIONS HAVE CONVERGED

 AVERAGE HEAT FLUX                   0.00       TIME AVG. HEAT FLUX   1.000E-02
 ALL HEAT FLUX RESIDUALS ARE ZERO
 ALL TEMP.    INCREMENTS ARE ZERO
 ALL CORRECTION TO TEMP.    ARE ZERO
          THERE IS ZERO HEAT FLUX EVERYWHERE

 MAXIMUM NON-PRESCRIBED INCREMENT IN TEMPERATURE IS    0.00    

 ITERATION SUMMARY FOR THE INCREMENT:   1 TOTAL ITERATIONS, OF WHICH
   0 ARE SEVERE DISCONTINUITY ITERATIONS AND  1 ARE EQUILIBRIUM ITERATIONS.

 TIME INCREMENT COMPLETED   10.0    ,  FRACTION OF STEP COMPLETED  0.180    
 STEP TIME COMPLETED        180.    ,  TOTAL TIME COMPLETED         180.    


  INCREMENT    19 STARTS. ATTEMPT NUMBER  1, TIME INCREMENT   10.0    
 
	UNSYMMETRIC NEW DIRECT SPARSE SOLVER RUNNING ON
 	1 HOST x 1 MPI RANK PER HOST x 8 THREADS PER RANK
        NUMBER OF EQUATIONS:  193158
        NUMBER OF RHS:        1
        NUMBER OF FLOPS:      3.029e+11
        SOLVER ELAPSED TIME:  2.5s

               CONVERGENCE CHECKS FOR EQUILIBRIUM ITERATION     1


 AVERAGE FORCE                       2.29       TIME AVG. FORCE        1.21    
 LARGEST SCALED RESIDUAL FORCE     -4.130E-03   AT NODE      43600   DOF  2
   INSTANCE: CHD2-M-1                                                                        
  CORRESPONDING RESIDUAL FORCE     -4.130E-03
 LARGEST INCREMENT OF DISP.         1.900E-05   AT NODE      11647   DOF  2
   INSTANCE: CHD2-M-1                                                                        
 LARGEST CORRECTION TO DISP.        8.335E-09   AT NODE      20962   DOF  2
   INSTANCE: CHD2-M-1                                                                        
          THE FORCE     EQUILIBRIUM EQUATIONS HAVE CONVERGED

 AVERAGE HEAT FLUX                   0.00       TIME AVG. HEAT FLUX   1.000E-02
 ALL HEAT FLUX RESIDUALS ARE ZERO
 ALL TEMP.    INCREMENTS ARE ZERO
 ALL CORRECTION TO TEMP.    ARE ZERO
          THERE IS ZERO HEAT FLUX EVERYWHERE

 MAXIMUM NON-PRESCRIBED INCREMENT IN TEMPERATURE IS    0.00    

 ITERATION SUMMARY FOR THE INCREMENT:   1 TOTAL ITERATIONS, OF WHICH
   0 ARE SEVERE DISCONTINUITY ITERATIONS AND  1 ARE EQUILIBRIUM ITERATIONS.

 TIME INCREMENT COMPLETED   10.0    ,  FRACTION OF STEP COMPLETED  0.190    
 STEP TIME COMPLETED        190.    ,  TOTAL TIME COMPLETED         190.    


  INCREMENT    20 STARTS. ATTEMPT NUMBER  1, TIME INCREMENT   10.0    
 
	UNSYMMETRIC NEW DIRECT SPARSE SOLVER RUNNING ON
 	1 HOST x 1 MPI RANK PER HOST x 8 THREADS PER RANK
        NUMBER OF EQUATIONS:  193158
        NUMBER OF RHS:        1
        NUMBER OF FLOPS:      3.029e+11
        SOLVER ELAPSED TIME:  2.5s

               CONVERGENCE CHECKS FOR EQUILIBRIUM ITERATION     1


 AVERAGE FORCE                       2.41       TIME AVG. FORCE        1.27    
 LARGEST SCALED RESIDUAL FORCE     -3.300E-04   AT NODE      28527   DOF  2
   INSTANCE: CHD2-M-1                                                                        
  CORRESPONDING RESIDUAL FORCE     -3.300E-04
 LARGEST INCREMENT OF DISP.         1.900E-05   AT NODE      11647   DOF  2
   INSTANCE: CHD2-M-1                                                                        
 LARGEST CORRECTION TO DISP.        9.122E-09   AT NODE      20751   DOF  2
   INSTANCE: CHD2-M-1                                                                        
          THE FORCE     EQUILIBRIUM EQUATIONS HAVE CONVERGED

 AVERAGE HEAT FLUX                   0.00       TIME AVG. HEAT FLUX   1.000E-02
 ALL HEAT FLUX RESIDUALS ARE ZERO
 ALL TEMP.    INCREMENTS ARE ZERO
 ALL CORRECTION TO TEMP.    ARE ZERO
          THERE IS ZERO HEAT FLUX EVERYWHERE

 MAXIMUM NON-PRESCRIBED INCREMENT IN TEMPERATURE IS    0.00    

 ITERATION SUMMARY FOR THE INCREMENT:   1 TOTAL ITERATIONS, OF WHICH
   0 ARE SEVERE DISCONTINUITY ITERATIONS AND  1 ARE EQUILIBRIUM ITERATIONS.

 TIME INCREMENT COMPLETED   10.0    ,  FRACTION OF STEP COMPLETED  0.200    
 STEP TIME COMPLETED        200.    ,  TOTAL TIME COMPLETED         200.    


  INCREMENT    21 STARTS. ATTEMPT NUMBER  1, TIME INCREMENT   10.0    
 
	UNSYMMETRIC NEW DIRECT SPARSE SOLVER RUNNING ON
 	1 HOST x 1 MPI RANK PER HOST x 8 THREADS PER RANK
        NUMBER OF EQUATIONS:  193158
        NUMBER OF RHS:        1
        NUMBER OF FLOPS:      3.029e+11
        SOLVER ELAPSED TIME:  2.5s

               CONVERGENCE CHECKS FOR EQUILIBRIUM ITERATION     1


 AVERAGE FORCE                       2.53       TIME AVG. FORCE        1.33    
 LARGEST SCALED RESIDUAL FORCE     -3.033E-03   AT NODE      29912   DOF  2
   INSTANCE: CHD2-M-1                                                                        
  CORRESPONDING RESIDUAL FORCE     -3.033E-03
 LARGEST INCREMENT OF DISP.         1.900E-05   AT NODE      11647   DOF  2
   INSTANCE: CHD2-M-1                                                                        
 LARGEST CORRECTION TO DISP.        1.140E-08   AT NODE      44768   DOF  3
   INSTANCE: CHD2-M-1                                                                        
          THE FORCE     EQUILIBRIUM EQUATIONS HAVE CONVERGED

 AVERAGE HEAT FLUX                   0.00       TIME AVG. HEAT FLUX   1.000E-02
 ALL HEAT FLUX RESIDUALS ARE ZERO
 ALL TEMP.    INCREMENTS ARE ZERO
 ALL CORRECTION TO TEMP.    ARE ZERO
          THERE IS ZERO HEAT FLUX EVERYWHERE

 MAXIMUM NON-PRESCRIBED INCREMENT IN TEMPERATURE IS    0.00    

 ITERATION SUMMARY FOR THE INCREMENT:   1 TOTAL ITERATIONS, OF WHICH
   0 ARE SEVERE DISCONTINUITY ITERATIONS AND  1 ARE EQUILIBRIUM ITERATIONS.

 TIME INCREMENT COMPLETED   10.0    ,  FRACTION OF STEP COMPLETED  0.210    
 STEP TIME COMPLETED        210.    ,  TOTAL TIME COMPLETED         210.    


  INCREMENT    22 STARTS. ATTEMPT NUMBER  1, TIME INCREMENT   10.0    
 
	UNSYMMETRIC NEW DIRECT SPARSE SOLVER RUNNING ON
 	1 HOST x 1 MPI RANK PER HOST x 8 THREADS PER RANK
        NUMBER OF EQUATIONS:  193158
        NUMBER OF RHS:        1
        NUMBER OF FLOPS:      3.029e+11
        SOLVER ELAPSED TIME:  2.5s

               CONVERGENCE CHECKS FOR EQUILIBRIUM ITERATION     1


 AVERAGE FORCE                       2.65       TIME AVG. FORCE        1.39    
 LARGEST SCALED RESIDUAL FORCE     -3.021E-03   AT NODE      54898   DOF  2
   INSTANCE: CHD2-M-1                                                                        
  CORRESPONDING RESIDUAL FORCE     -3.021E-03
 LARGEST INCREMENT OF DISP.         1.900E-05   AT NODE      11647   DOF  2
   INSTANCE: CHD2-M-1                                                                        
 LARGEST CORRECTION TO DISP.        1.442E-08   AT NODE      15060   DOF  3
   INSTANCE: CHD2-M-1                                                                        
          THE FORCE     EQUILIBRIUM EQUATIONS HAVE CONVERGED

 AVERAGE HEAT FLUX                   0.00       TIME AVG. HEAT FLUX   1.000E-02
 ALL HEAT FLUX RESIDUALS ARE ZERO
 ALL TEMP.    INCREMENTS ARE ZERO
 ALL CORRECTION TO TEMP.    ARE ZERO
          THERE IS ZERO HEAT FLUX EVERYWHERE

 MAXIMUM NON-PRESCRIBED INCREMENT IN TEMPERATURE IS    0.00    

 ITERATION SUMMARY FOR THE INCREMENT:   1 TOTAL ITERATIONS, OF WHICH
   0 ARE SEVERE DISCONTINUITY ITERATIONS AND  1 ARE EQUILIBRIUM ITERATIONS.

 TIME INCREMENT COMPLETED   10.0    ,  FRACTION OF STEP COMPLETED  0.220    
 STEP TIME COMPLETED        220.    ,  TOTAL TIME COMPLETED         220.    


  INCREMENT    23 STARTS. ATTEMPT NUMBER  1, TIME INCREMENT   10.0    
 
	UNSYMMETRIC NEW DIRECT SPARSE SOLVER RUNNING ON
 	1 HOST x 1 MPI RANK PER HOST x 8 THREADS PER RANK
        NUMBER OF EQUATIONS:  193158
        NUMBER OF RHS:        1
        NUMBER OF FLOPS:      3.029e+11
        SOLVER ELAPSED TIME:  2.5s

               CONVERGENCE CHECKS FOR EQUILIBRIUM ITERATION     1


 AVERAGE FORCE                       2.77       TIME AVG. FORCE        1.45    
 LARGEST SCALED RESIDUAL FORCE     -3.547E-03   AT NODE      31150   DOF  2
   INSTANCE: CHD2-M-1                                                                        
  CORRESPONDING RESIDUAL FORCE     -3.547E-03
 LARGEST INCREMENT OF DISP.         1.900E-05   AT NODE      11647   DOF  2
   INSTANCE: CHD2-M-1                                                                        
 LARGEST CORRECTION TO DISP.        1.242E-08   AT NODE      44768   DOF  3
   INSTANCE: CHD2-M-1                                                                        
          THE FORCE     EQUILIBRIUM EQUATIONS HAVE CONVERGED

 AVERAGE HEAT FLUX                   0.00       TIME AVG. HEAT FLUX   1.000E-02
 ALL HEAT FLUX RESIDUALS ARE ZERO
 ALL TEMP.    INCREMENTS ARE ZERO
 ALL CORRECTION TO TEMP.    ARE ZERO
          THERE IS ZERO HEAT FLUX EVERYWHERE

 MAXIMUM NON-PRESCRIBED INCREMENT IN TEMPERATURE IS    0.00    

 ITERATION SUMMARY FOR THE INCREMENT:   1 TOTAL ITERATIONS, OF WHICH
   0 ARE SEVERE DISCONTINUITY ITERATIONS AND  1 ARE EQUILIBRIUM ITERATIONS.

 TIME INCREMENT COMPLETED   10.0    ,  FRACTION OF STEP COMPLETED  0.230    
 STEP TIME COMPLETED        230.    ,  TOTAL TIME COMPLETED         230.    


  INCREMENT    24 STARTS. ATTEMPT NUMBER  1, TIME INCREMENT   10.0    
 
	UNSYMMETRIC NEW DIRECT SPARSE SOLVER RUNNING ON
 	1 HOST x 1 MPI RANK PER HOST x 8 THREADS PER RANK
        NUMBER OF EQUATIONS:  193158
        NUMBER OF RHS:        1
        NUMBER OF FLOPS:      3.029e+11
        SOLVER ELAPSED TIME:  2.5s

               CONVERGENCE CHECKS FOR EQUILIBRIUM ITERATION     1


 AVERAGE FORCE                       2.89       TIME AVG. FORCE        1.51    
 LARGEST SCALED RESIDUAL FORCE     -2.504E-03   AT NODE      55050   DOF  2
   INSTANCE: CHD2-M-1                                                                        
  CORRESPONDING RESIDUAL FORCE     -2.504E-03
 LARGEST INCREMENT OF DISP.         1.900E-05   AT NODE      11647   DOF  2
   INSTANCE: CHD2-M-1                                                                        
 LARGEST CORRECTION TO DISP.        1.126E-08   AT NODE      14935   DOF  3
   INSTANCE: CHD2-M-1                                                                        
          THE FORCE     EQUILIBRIUM EQUATIONS HAVE CONVERGED

 AVERAGE HEAT FLUX                   0.00       TIME AVG. HEAT FLUX   1.000E-02
 ALL HEAT FLUX RESIDUALS ARE ZERO
 ALL TEMP.    INCREMENTS ARE ZERO
 ALL CORRECTION TO TEMP.    ARE ZERO
          THERE IS ZERO HEAT FLUX EVERYWHERE

 MAXIMUM NON-PRESCRIBED INCREMENT IN TEMPERATURE IS    0.00    

 ITERATION SUMMARY FOR THE INCREMENT:   1 TOTAL ITERATIONS, OF WHICH
   0 ARE SEVERE DISCONTINUITY ITERATIONS AND  1 ARE EQUILIBRIUM ITERATIONS.

 TIME INCREMENT COMPLETED   10.0    ,  FRACTION OF STEP COMPLETED  0.240    
 STEP TIME COMPLETED        240.    ,  TOTAL TIME COMPLETED         240.    


  INCREMENT    25 STARTS. ATTEMPT NUMBER  1, TIME INCREMENT   10.0    
 
	UNSYMMETRIC NEW DIRECT SPARSE SOLVER RUNNING ON
 	1 HOST x 1 MPI RANK PER HOST x 8 THREADS PER RANK
        NUMBER OF EQUATIONS:  193158
        NUMBER OF RHS:        1
        NUMBER OF FLOPS:      3.029e+11
        SOLVER ELAPSED TIME:  2.5s

               CONVERGENCE CHECKS FOR EQUILIBRIUM ITERATION     1


 AVERAGE FORCE                       3.01       TIME AVG. FORCE        1.57    
 LARGEST SCALED RESIDUAL FORCE     -2.242E-03   AT NODE      47270   DOF  2
   INSTANCE: CHD2-M-1                                                                        
  CORRESPONDING RESIDUAL FORCE     -2.242E-03
 LARGEST INCREMENT OF DISP.         1.900E-05   AT NODE      11647   DOF  2
   INSTANCE: CHD2-M-1                                                                        
 LARGEST CORRECTION TO DISP.        1.159E-08   AT NODE      31147   DOF  2
   INSTANCE: CHD2-M-1                                                                        
          THE FORCE     EQUILIBRIUM EQUATIONS HAVE CONVERGED

 AVERAGE HEAT FLUX                   0.00       TIME AVG. HEAT FLUX   1.000E-02
 ALL HEAT FLUX RESIDUALS ARE ZERO
 ALL TEMP.    INCREMENTS ARE ZERO
 ALL CORRECTION TO TEMP.    ARE ZERO
          THERE IS ZERO HEAT FLUX EVERYWHERE

 MAXIMUM NON-PRESCRIBED INCREMENT IN TEMPERATURE IS    0.00    

 ITERATION SUMMARY FOR THE INCREMENT:   1 TOTAL ITERATIONS, OF WHICH
   0 ARE SEVERE DISCONTINUITY ITERATIONS AND  1 ARE EQUILIBRIUM ITERATIONS.

 TIME INCREMENT COMPLETED   10.0    ,  FRACTION OF STEP COMPLETED  0.250    
 STEP TIME COMPLETED        250.    ,  TOTAL TIME COMPLETED         250.    


  INCREMENT    26 STARTS. ATTEMPT NUMBER  1, TIME INCREMENT   10.0    
 
	UNSYMMETRIC NEW DIRECT SPARSE SOLVER RUNNING ON
 	1 HOST x 1 MPI RANK PER HOST x 8 THREADS PER RANK
        NUMBER OF EQUATIONS:  193158
        NUMBER OF RHS:        1
        NUMBER OF FLOPS:      3.029e+11
        SOLVER ELAPSED TIME:  2.5s

               CONVERGENCE CHECKS FOR EQUILIBRIUM ITERATION     1


 AVERAGE FORCE                       3.12       TIME AVG. FORCE        1.63    
 LARGEST SCALED RESIDUAL FORCE     -4.849E-03   AT NODE      31661   DOF  2
   INSTANCE: CHD2-M-1                                                                        
  CORRESPONDING RESIDUAL FORCE     -4.849E-03
 LARGEST INCREMENT OF DISP.         1.900E-05   AT NODE      11647   DOF  2
   INSTANCE: CHD2-M-1                                                                        
 LARGEST CORRECTION TO DISP.        1.184E-08   AT NODE      31669   DOF  2
   INSTANCE: CHD2-M-1                                                                        
          THE FORCE     EQUILIBRIUM EQUATIONS HAVE CONVERGED

 AVERAGE HEAT FLUX                   0.00       TIME AVG. HEAT FLUX   1.000E-02
 ALL HEAT FLUX RESIDUALS ARE ZERO
 ALL TEMP.    INCREMENTS ARE ZERO
 ALL CORRECTION TO TEMP.    ARE ZERO
          THERE IS ZERO HEAT FLUX EVERYWHERE

 MAXIMUM NON-PRESCRIBED INCREMENT IN TEMPERATURE IS    0.00    

 ITERATION SUMMARY FOR THE INCREMENT:   1 TOTAL ITERATIONS, OF WHICH
   0 ARE SEVERE DISCONTINUITY ITERATIONS AND  1 ARE EQUILIBRIUM ITERATIONS.

 TIME INCREMENT COMPLETED   10.0    ,  FRACTION OF STEP COMPLETED  0.260    
 STEP TIME COMPLETED        260.    ,  TOTAL TIME COMPLETED         260.    


  INCREMENT    27 STARTS. ATTEMPT NUMBER  1, TIME INCREMENT   10.0    
 
	UNSYMMETRIC NEW DIRECT SPARSE SOLVER RUNNING ON
 	1 HOST x 1 MPI RANK PER HOST x 8 THREADS PER RANK
        NUMBER OF EQUATIONS:  193158
        NUMBER OF RHS:        1
        NUMBER OF FLOPS:      3.029e+11
        SOLVER ELAPSED TIME:  2.5s

               CONVERGENCE CHECKS FOR EQUILIBRIUM ITERATION     1


 AVERAGE FORCE                       3.24       TIME AVG. FORCE        1.69    
 LARGEST SCALED RESIDUAL FORCE      2.625E-03   AT NODE      45442   DOF  2
   INSTANCE: CHD2-M-1                                                                        
  CORRESPONDING RESIDUAL FORCE      2.625E-03
 LARGEST INCREMENT OF DISP.         1.900E-05   AT NODE      11647   DOF  2
   INSTANCE: CHD2-M-1                                                                        
 LARGEST CORRECTION TO DISP.        1.151E-08   AT NODE      36443   DOF  2
   INSTANCE: CHD2-M-1                                                                        
          THE FORCE     EQUILIBRIUM EQUATIONS HAVE CONVERGED

 AVERAGE HEAT FLUX                   0.00       TIME AVG. HEAT FLUX   1.000E-02
 ALL HEAT FLUX RESIDUALS ARE ZERO
 ALL TEMP.    INCREMENTS ARE ZERO
 ALL CORRECTION TO TEMP.    ARE ZERO
          THERE IS ZERO HEAT FLUX EVERYWHERE

 MAXIMUM NON-PRESCRIBED INCREMENT IN TEMPERATURE IS    0.00    

 ITERATION SUMMARY FOR THE INCREMENT:   1 TOTAL ITERATIONS, OF WHICH
   0 ARE SEVERE DISCONTINUITY ITERATIONS AND  1 ARE EQUILIBRIUM ITERATIONS.

 TIME INCREMENT COMPLETED   10.0    ,  FRACTION OF STEP COMPLETED  0.270    
 STEP TIME COMPLETED        270.    ,  TOTAL TIME COMPLETED         270.    


  INCREMENT    28 STARTS. ATTEMPT NUMBER  1, TIME INCREMENT   10.0    
 
	UNSYMMETRIC NEW DIRECT SPARSE SOLVER RUNNING ON
 	1 HOST x 1 MPI RANK PER HOST x 8 THREADS PER RANK
        NUMBER OF EQUATIONS:  193158
        NUMBER OF RHS:        1
        NUMBER OF FLOPS:      3.029e+11
        SOLVER ELAPSED TIME:  2.5s

               CONVERGENCE CHECKS FOR EQUILIBRIUM ITERATION     1


 AVERAGE FORCE                       3.36       TIME AVG. FORCE        1.75    
 LARGEST SCALED RESIDUAL FORCE     -7.770E-03   AT NODE      21331   DOF  2
   INSTANCE: CHD2-M-1                                                                        
  CORRESPONDING RESIDUAL FORCE     -7.770E-03
 LARGEST INCREMENT OF DISP.         1.900E-05   AT NODE      11647   DOF  2
   INSTANCE: CHD2-M-1                                                                        
 LARGEST CORRECTION TO DISP.        1.375E-08   AT NODE      31663   DOF  2
   INSTANCE: CHD2-M-1                                                                        
          THE FORCE     EQUILIBRIUM EQUATIONS HAVE CONVERGED

 AVERAGE HEAT FLUX                   0.00       TIME AVG. HEAT FLUX   1.000E-02
 ALL HEAT FLUX RESIDUALS ARE ZERO
 ALL TEMP.    INCREMENTS ARE ZERO
 ALL CORRECTION TO TEMP.    ARE ZERO
          THERE IS ZERO HEAT FLUX EVERYWHERE

 MAXIMUM NON-PRESCRIBED INCREMENT IN TEMPERATURE IS    0.00    

 ITERATION SUMMARY FOR THE INCREMENT:   1 TOTAL ITERATIONS, OF WHICH
   0 ARE SEVERE DISCONTINUITY ITERATIONS AND  1 ARE EQUILIBRIUM ITERATIONS.

 TIME INCREMENT COMPLETED   10.0    ,  FRACTION OF STEP COMPLETED  0.280    
 STEP TIME COMPLETED        280.    ,  TOTAL TIME COMPLETED         280.    


  INCREMENT    29 STARTS. ATTEMPT NUMBER  1, TIME INCREMENT   10.0    
 
	UNSYMMETRIC NEW DIRECT SPARSE SOLVER RUNNING ON
 	1 HOST x 1 MPI RANK PER HOST x 8 THREADS PER RANK
        NUMBER OF EQUATIONS:  193158
        NUMBER OF RHS:        1
        NUMBER OF FLOPS:      3.029e+11
        SOLVER ELAPSED TIME:  2.6s

               CONVERGENCE CHECKS FOR EQUILIBRIUM ITERATION     1


 AVERAGE FORCE                       3.47       TIME AVG. FORCE        1.81    
 LARGEST SCALED RESIDUAL FORCE      1.028E-02   AT NODE      31132   DOF  2
   INSTANCE: CHD2-M-1                                                                        
  CORRESPONDING RESIDUAL FORCE      1.028E-02
 LARGEST INCREMENT OF DISP.         1.900E-05   AT NODE      11647   DOF  2
   INSTANCE: CHD2-M-1                                                                        
 LARGEST CORRECTION TO DISP.        1.400E-08   AT NODE      31657   DOF  2
   INSTANCE: CHD2-M-1                                                                        
          FORCE     EQUILIBRIUM NOT ACHIEVED WITHIN TOLERANCE.

 AVERAGE HEAT FLUX                   0.00       TIME AVG. HEAT FLUX   1.000E-02
 ALL HEAT FLUX RESIDUALS ARE ZERO
 ALL TEMP.    INCREMENTS ARE ZERO
 ALL CORRECTION TO TEMP.    ARE ZERO
          THERE IS ZERO HEAT FLUX EVERYWHERE
 
	UNSYMMETRIC NEW DIRECT SPARSE SOLVER RUNNING ON
 	1 HOST x 1 MPI RANK PER HOST x 8 THREADS PER RANK
        NUMBER OF EQUATIONS:  193158
        NUMBER OF RHS:        1
        NUMBER OF FLOPS:      3.029e+11
        SOLVER ELAPSED TIME:  2.5s

               CONVERGENCE CHECKS FOR EQUILIBRIUM ITERATION     2


 AVERAGE FORCE                       3.47       TIME AVG. FORCE        1.81    
 LARGEST SCALED RESIDUAL FORCE     -1.914E-05   AT NODE      31132   DOF  2
   INSTANCE: CHD2-M-1                                                                        
  CORRESPONDING RESIDUAL FORCE     -1.914E-05
 LARGEST INCREMENT OF DISP.         1.900E-05   AT NODE      11647   DOF  2
   INSTANCE: CHD2-M-1                                                                        
 LARGEST CORRECTION TO DISP.        3.241E-10   AT NODE      31132   DOF  2
   INSTANCE: CHD2-M-1                                                                        
          THE FORCE     EQUILIBRIUM EQUATIONS HAVE CONVERGED

 AVERAGE HEAT FLUX                   0.00       TIME AVG. HEAT FLUX   1.000E-02
 ALL HEAT FLUX RESIDUALS ARE ZERO
 ALL TEMP.    INCREMENTS ARE ZERO
 ALL CORRECTION TO TEMP.    ARE ZERO
          THERE IS ZERO HEAT FLUX EVERYWHERE

 MAXIMUM NON-PRESCRIBED INCREMENT IN TEMPERATURE IS    0.00    

 ITERATION SUMMARY FOR THE INCREMENT:   2 TOTAL ITERATIONS, OF WHICH
   0 ARE SEVERE DISCONTINUITY ITERATIONS AND  2 ARE EQUILIBRIUM ITERATIONS.

 TIME INCREMENT COMPLETED   10.0    ,  FRACTION OF STEP COMPLETED  0.290    
 STEP TIME COMPLETED        290.    ,  TOTAL TIME COMPLETED         290.    


  INCREMENT    30 STARTS. ATTEMPT NUMBER  1, TIME INCREMENT   10.0    
 
	UNSYMMETRIC NEW DIRECT SPARSE SOLVER RUNNING ON
 	1 HOST x 1 MPI RANK PER HOST x 8 THREADS PER RANK
        NUMBER OF EQUATIONS:  193158
        NUMBER OF RHS:        1
        NUMBER OF FLOPS:      3.029e+11
        SOLVER ELAPSED TIME:  2.5s

               CONVERGENCE CHECKS FOR EQUILIBRIUM ITERATION     1


 AVERAGE FORCE                       3.59       TIME AVG. FORCE        1.86    
 LARGEST SCALED RESIDUAL FORCE     -7.839E-03   AT NODE      21330   DOF  2
   INSTANCE: CHD2-M-1                                                                        
  CORRESPONDING RESIDUAL FORCE     -7.839E-03
 LARGEST INCREMENT OF DISP.         1.900E-05   AT NODE      11647   DOF  2
   INSTANCE: CHD2-M-1                                                                        
 LARGEST CORRECTION TO DISP.        1.455E-08   AT NODE      31140   DOF  2
   INSTANCE: CHD2-M-1                                                                        
          THE FORCE     EQUILIBRIUM EQUATIONS HAVE CONVERGED

 AVERAGE HEAT FLUX                   0.00       TIME AVG. HEAT FLUX   1.000E-02
 ALL HEAT FLUX RESIDUALS ARE ZERO
 ALL TEMP.    INCREMENTS ARE ZERO
 ALL CORRECTION TO TEMP.    ARE ZERO
          THERE IS ZERO HEAT FLUX EVERYWHERE

 MAXIMUM NON-PRESCRIBED INCREMENT IN TEMPERATURE IS    0.00    

 ITERATION SUMMARY FOR THE INCREMENT:   1 TOTAL ITERATIONS, OF WHICH
   0 ARE SEVERE DISCONTINUITY ITERATIONS AND  1 ARE EQUILIBRIUM ITERATIONS.

 TIME INCREMENT COMPLETED   10.0    ,  FRACTION OF STEP COMPLETED  0.300    
 STEP TIME COMPLETED        300.    ,  TOTAL TIME COMPLETED         300.    


  INCREMENT    31 STARTS. ATTEMPT NUMBER  1, TIME INCREMENT   10.0    
 
	UNSYMMETRIC NEW DIRECT SPARSE SOLVER RUNNING ON
 	1 HOST x 1 MPI RANK PER HOST x 8 THREADS PER RANK
        NUMBER OF EQUATIONS:  193158
        NUMBER OF RHS:        1
        NUMBER OF FLOPS:      3.029e+11
        SOLVER ELAPSED TIME:  2.5s

               CONVERGENCE CHECKS FOR EQUILIBRIUM ITERATION     1


 AVERAGE FORCE                       3.70       TIME AVG. FORCE        1.92    
 LARGEST SCALED RESIDUAL FORCE     -1.048E-02   AT NODE      17329   DOF  2
   INSTANCE: CHD2-M-1                                                                        
  CORRESPONDING RESIDUAL FORCE     -1.048E-02
 LARGEST INCREMENT OF DISP.         1.900E-05   AT NODE      11647   DOF  2
   INSTANCE: CHD2-M-1                                                                        
 LARGEST CORRECTION TO DISP.        1.663E-08   AT NODE      31658   DOF  2
   INSTANCE: CHD2-M-1                                                                        
          FORCE     EQUILIBRIUM NOT ACHIEVED WITHIN TOLERANCE.

 AVERAGE HEAT FLUX                   0.00       TIME AVG. HEAT FLUX   1.000E-02
 ALL HEAT FLUX RESIDUALS ARE ZERO
 ALL TEMP.    INCREMENTS ARE ZERO
 ALL CORRECTION TO TEMP.    ARE ZERO
          THERE IS ZERO HEAT FLUX EVERYWHERE
 
	UNSYMMETRIC NEW DIRECT SPARSE SOLVER RUNNING ON
 	1 HOST x 1 MPI RANK PER HOST x 8 THREADS PER RANK
        NUMBER OF EQUATIONS:  193158
        NUMBER OF RHS:        1
        NUMBER OF FLOPS:      3.029e+11
        SOLVER ELAPSED TIME:  2.5s

               CONVERGENCE CHECKS FOR EQUILIBRIUM ITERATION     2


 AVERAGE FORCE                       3.70       TIME AVG. FORCE        1.92    
 LARGEST SCALED RESIDUAL FORCE     -1.729E-05   AT NODE      31126   DOF  2
   INSTANCE: CHD2-M-1                                                                        
  CORRESPONDING RESIDUAL FORCE     -1.729E-05
 LARGEST INCREMENT OF DISP.         1.900E-05   AT NODE      11647   DOF  2
   INSTANCE: CHD2-M-1                                                                        
 LARGEST CORRECTION TO DISP.        4.004E-10   AT NODE      31643   DOF  2
   INSTANCE: CHD2-M-1                                                                        
          THE FORCE     EQUILIBRIUM EQUATIONS HAVE CONVERGED

 AVERAGE HEAT FLUX                   0.00       TIME AVG. HEAT FLUX   1.000E-02
 ALL HEAT FLUX RESIDUALS ARE ZERO
 ALL TEMP.    INCREMENTS ARE ZERO
 ALL CORRECTION TO TEMP.    ARE ZERO
          THERE IS ZERO HEAT FLUX EVERYWHERE

 MAXIMUM NON-PRESCRIBED INCREMENT IN TEMPERATURE IS    0.00    

 ITERATION SUMMARY FOR THE INCREMENT:   2 TOTAL ITERATIONS, OF WHICH
   0 ARE SEVERE DISCONTINUITY ITERATIONS AND  2 ARE EQUILIBRIUM ITERATIONS.

 TIME INCREMENT COMPLETED   10.0    ,  FRACTION OF STEP COMPLETED  0.310    
 STEP TIME COMPLETED        310.    ,  TOTAL TIME COMPLETED         310.    


  INCREMENT    32 STARTS. ATTEMPT NUMBER  1, TIME INCREMENT   10.0    
 
	UNSYMMETRIC NEW DIRECT SPARSE SOLVER RUNNING ON
 	1 HOST x 1 MPI RANK PER HOST x 8 THREADS PER RANK
        NUMBER OF EQUATIONS:  193158
        NUMBER OF RHS:        1
        NUMBER OF FLOPS:      3.029e+11
        SOLVER ELAPSED TIME:  2.5s

               CONVERGENCE CHECKS FOR EQUILIBRIUM ITERATION     1


 AVERAGE FORCE                       3.81       TIME AVG. FORCE        1.98    
 LARGEST SCALED RESIDUAL FORCE     -6.452E-03   AT NODE      17597   DOF  2
   INSTANCE: CHD2-M-1                                                                        
  CORRESPONDING RESIDUAL FORCE     -6.452E-03
 LARGEST INCREMENT OF DISP.         1.900E-05   AT NODE      11647   DOF  2
   INSTANCE: CHD2-M-1                                                                        
 LARGEST CORRECTION TO DISP.        1.720E-08   AT NODE      31652   DOF  2
   INSTANCE: CHD2-M-1                                                                        
          THE FORCE     EQUILIBRIUM EQUATIONS HAVE CONVERGED

 AVERAGE HEAT FLUX                   0.00       TIME AVG. HEAT FLUX   1.000E-02
 ALL HEAT FLUX RESIDUALS ARE ZERO
 ALL TEMP.    INCREMENTS ARE ZERO
 ALL CORRECTION TO TEMP.    ARE ZERO
          THERE IS ZERO HEAT FLUX EVERYWHERE

 MAXIMUM NON-PRESCRIBED INCREMENT IN TEMPERATURE IS    0.00    

 ITERATION SUMMARY FOR THE INCREMENT:   1 TOTAL ITERATIONS, OF WHICH
   0 ARE SEVERE DISCONTINUITY ITERATIONS AND  1 ARE EQUILIBRIUM ITERATIONS.

 TIME INCREMENT COMPLETED   10.0    ,  FRACTION OF STEP COMPLETED  0.320    
 STEP TIME COMPLETED        320.    ,  TOTAL TIME COMPLETED         320.    


  INCREMENT    33 STARTS. ATTEMPT NUMBER  1, TIME INCREMENT   10.0    
 
	UNSYMMETRIC NEW DIRECT SPARSE SOLVER RUNNING ON
 	1 HOST x 1 MPI RANK PER HOST x 8 THREADS PER RANK
        NUMBER OF EQUATIONS:  193158
        NUMBER OF RHS:        1
        NUMBER OF FLOPS:      3.029e+11
        SOLVER ELAPSED TIME:  2.6s

               CONVERGENCE CHECKS FOR EQUILIBRIUM ITERATION     1


 AVERAGE FORCE                       3.92       TIME AVG. FORCE        2.04    
 LARGEST SCALED RESIDUAL FORCE     -7.919E-03   AT NODE      54831   DOF  2
   INSTANCE: CHD2-M-1                                                                        
  CORRESPONDING RESIDUAL FORCE     -7.919E-03
 LARGEST INCREMENT OF DISP.         1.900E-05   AT NODE      11647   DOF  2
   INSTANCE: CHD2-M-1                                                                        
 LARGEST CORRECTION TO DISP.        2.003E-08   AT NODE      18938   DOF  2
   INSTANCE: CHD2-M-1                                                                        
          THE FORCE     EQUILIBRIUM EQUATIONS HAVE CONVERGED

 AVERAGE HEAT FLUX                   0.00       TIME AVG. HEAT FLUX   1.000E-02
 ALL HEAT FLUX RESIDUALS ARE ZERO
 ALL TEMP.    INCREMENTS ARE ZERO
 ALL CORRECTION TO TEMP.    ARE ZERO
          THERE IS ZERO HEAT FLUX EVERYWHERE

 MAXIMUM NON-PRESCRIBED INCREMENT IN TEMPERATURE IS    0.00    

 ITERATION SUMMARY FOR THE INCREMENT:   1 TOTAL ITERATIONS, OF WHICH
   0 ARE SEVERE DISCONTINUITY ITERATIONS AND  1 ARE EQUILIBRIUM ITERATIONS.

 TIME INCREMENT COMPLETED   10.0    ,  FRACTION OF STEP COMPLETED  0.330    
 STEP TIME COMPLETED        330.    ,  TOTAL TIME COMPLETED         330.    


  INCREMENT    34 STARTS. ATTEMPT NUMBER  1, TIME INCREMENT   10.0    
 
	UNSYMMETRIC NEW DIRECT SPARSE SOLVER RUNNING ON
 	1 HOST x 1 MPI RANK PER HOST x 8 THREADS PER RANK
        NUMBER OF EQUATIONS:  193158
        NUMBER OF RHS:        1
        NUMBER OF FLOPS:      3.029e+11
        SOLVER ELAPSED TIME:  2.5s

               CONVERGENCE CHECKS FOR EQUILIBRIUM ITERATION     1


 AVERAGE FORCE                       4.03       TIME AVG. FORCE        2.10    
 LARGEST SCALED RESIDUAL FORCE     -6.817E-03   AT NODE      55039   DOF  2
   INSTANCE: CHD2-M-1                                                                        
  CORRESPONDING RESIDUAL FORCE     -6.817E-03
 LARGEST INCREMENT OF DISP.         1.900E-05   AT NODE      11647   DOF  2
   INSTANCE: CHD2-M-1                                                                        
 LARGEST CORRECTION TO DISP.        2.221E-08   AT NODE      40337   DOF  2
   INSTANCE: CHD2-M-1                                                                        
          THE FORCE     EQUILIBRIUM EQUATIONS HAVE CONVERGED

 AVERAGE HEAT FLUX                   0.00       TIME AVG. HEAT FLUX   1.000E-02
 ALL HEAT FLUX RESIDUALS ARE ZERO
 ALL TEMP.    INCREMENTS ARE ZERO
 ALL CORRECTION TO TEMP.    ARE ZERO
          THERE IS ZERO HEAT FLUX EVERYWHERE

 MAXIMUM NON-PRESCRIBED INCREMENT IN TEMPERATURE IS    0.00    

 ITERATION SUMMARY FOR THE INCREMENT:   1 TOTAL ITERATIONS, OF WHICH
   0 ARE SEVERE DISCONTINUITY ITERATIONS AND  1 ARE EQUILIBRIUM ITERATIONS.

 TIME INCREMENT COMPLETED   10.0    ,  FRACTION OF STEP COMPLETED  0.340    
 STEP TIME COMPLETED        340.    ,  TOTAL TIME COMPLETED         340.    


  INCREMENT    35 STARTS. ATTEMPT NUMBER  1, TIME INCREMENT   10.0    
 
	UNSYMMETRIC NEW DIRECT SPARSE SOLVER RUNNING ON
 	1 HOST x 1 MPI RANK PER HOST x 8 THREADS PER RANK
        NUMBER OF EQUATIONS:  193158
        NUMBER OF RHS:        1
        NUMBER OF FLOPS:      3.029e+11
        SOLVER ELAPSED TIME:  2.5s

               CONVERGENCE CHECKS FOR EQUILIBRIUM ITERATION     1


 AVERAGE FORCE                       4.14       TIME AVG. FORCE        2.16    
 LARGEST SCALED RESIDUAL FORCE      9.972E-03   AT NODE      31103   DOF  2
   INSTANCE: CHD2-M-1                                                                        
  CORRESPONDING RESIDUAL FORCE      9.972E-03
 LARGEST INCREMENT OF DISP.         1.900E-05   AT NODE      11647   DOF  2
   INSTANCE: CHD2-M-1                                                                        
 LARGEST CORRECTION TO DISP.        2.762E-08   AT NODE      37675   DOF  2
   INSTANCE: CHD2-M-1                                                                        
          THE FORCE     EQUILIBRIUM EQUATIONS HAVE CONVERGED

 AVERAGE HEAT FLUX                   0.00       TIME AVG. HEAT FLUX   1.000E-02
 ALL HEAT FLUX RESIDUALS ARE ZERO
 ALL TEMP.    INCREMENTS ARE ZERO
 ALL CORRECTION TO TEMP.    ARE ZERO
          THERE IS ZERO HEAT FLUX EVERYWHERE

 MAXIMUM NON-PRESCRIBED INCREMENT IN TEMPERATURE IS    0.00    

 ITERATION SUMMARY FOR THE INCREMENT:   1 TOTAL ITERATIONS, OF WHICH
   0 ARE SEVERE DISCONTINUITY ITERATIONS AND  1 ARE EQUILIBRIUM ITERATIONS.

 TIME INCREMENT COMPLETED   10.0    ,  FRACTION OF STEP COMPLETED  0.350    
 STEP TIME COMPLETED        350.    ,  TOTAL TIME COMPLETED         350.    


  INCREMENT    36 STARTS. ATTEMPT NUMBER  1, TIME INCREMENT   10.0    
 
	UNSYMMETRIC NEW DIRECT SPARSE SOLVER RUNNING ON
 	1 HOST x 1 MPI RANK PER HOST x 8 THREADS PER RANK
        NUMBER OF EQUATIONS:  193158
        NUMBER OF RHS:        1
        NUMBER OF FLOPS:      3.029e+11
        SOLVER ELAPSED TIME:  2.5s

               CONVERGENCE CHECKS FOR EQUILIBRIUM ITERATION     1


 AVERAGE FORCE                       4.25       TIME AVG. FORCE        2.22    
 LARGEST SCALED RESIDUAL FORCE      1.171E-02   AT NODE      54787   DOF  2
   INSTANCE: CHD2-M-1                                                                        
  CORRESPONDING RESIDUAL FORCE      1.171E-02
 LARGEST INCREMENT OF DISP.         1.900E-05   AT NODE      11647   DOF  2
   INSTANCE: CHD2-M-1                                                                        
 LARGEST CORRECTION TO DISP.        3.436E-08   AT NODE      30574   DOF  2
   INSTANCE: CHD2-M-1                                                                        
          FORCE     EQUILIBRIUM NOT ACHIEVED WITHIN TOLERANCE.

 AVERAGE HEAT FLUX                   0.00       TIME AVG. HEAT FLUX   1.000E-02
 ALL HEAT FLUX RESIDUALS ARE ZERO
 ALL TEMP.    INCREMENTS ARE ZERO
 ALL CORRECTION TO TEMP.    ARE ZERO
          THERE IS ZERO HEAT FLUX EVERYWHERE
 
	UNSYMMETRIC NEW DIRECT SPARSE SOLVER RUNNING ON
 	1 HOST x 1 MPI RANK PER HOST x 8 THREADS PER RANK
        NUMBER OF EQUATIONS:  193158
        NUMBER OF RHS:        1
        NUMBER OF FLOPS:      3.029e+11
        SOLVER ELAPSED TIME:  2.5s

               CONVERGENCE CHECKS FOR EQUILIBRIUM ITERATION     2


 AVERAGE FORCE                       4.25       TIME AVG. FORCE        2.22    
 LARGEST SCALED RESIDUAL FORCE     -3.371E-04   AT NODE      54918   DOF  2
   INSTANCE: CHD2-M-1                                                                        
  CORRESPONDING RESIDUAL FORCE     -3.371E-04
 LARGEST INCREMENT OF DISP.         1.900E-05   AT NODE      11647   DOF  2
   INSTANCE: CHD2-M-1                                                                        
 LARGEST CORRECTION TO DISP.       -4.903E-10   AT NODE      55216   DOF  2
   INSTANCE: CHD2-M-1                                                                        
          THE FORCE     EQUILIBRIUM EQUATIONS HAVE CONVERGED

 AVERAGE HEAT FLUX                   0.00       TIME AVG. HEAT FLUX   1.000E-02
 ALL HEAT FLUX RESIDUALS ARE ZERO
 ALL TEMP.    INCREMENTS ARE ZERO
 ALL CORRECTION TO TEMP.    ARE ZERO
          THERE IS ZERO HEAT FLUX EVERYWHERE

 MAXIMUM NON-PRESCRIBED INCREMENT IN TEMPERATURE IS    0.00    

 ITERATION SUMMARY FOR THE INCREMENT:   2 TOTAL ITERATIONS, OF WHICH
   0 ARE SEVERE DISCONTINUITY ITERATIONS AND  2 ARE EQUILIBRIUM ITERATIONS.

 TIME INCREMENT COMPLETED   10.0    ,  FRACTION OF STEP COMPLETED  0.360    
 STEP TIME COMPLETED        360.    ,  TOTAL TIME COMPLETED         360.    


  INCREMENT    37 STARTS. ATTEMPT NUMBER  1, TIME INCREMENT   10.0    
 
	UNSYMMETRIC NEW DIRECT SPARSE SOLVER RUNNING ON
 	1 HOST x 1 MPI RANK PER HOST x 8 THREADS PER RANK
        NUMBER OF EQUATIONS:  193158
        NUMBER OF RHS:        1
        NUMBER OF FLOPS:      3.029e+11
        SOLVER ELAPSED TIME:  2.5s

               CONVERGENCE CHECKS FOR EQUILIBRIUM ITERATION     1


 AVERAGE FORCE                       4.35       TIME AVG. FORCE        2.27    
 LARGEST SCALED RESIDUAL FORCE     -1.433E-02   AT NODE      33387   DOF  2
   INSTANCE: CHD2-M-1                                                                        
  CORRESPONDING RESIDUAL FORCE     -1.433E-02
 LARGEST INCREMENT OF DISP.         1.900E-05   AT NODE      11647   DOF  2
   INSTANCE: CHD2-M-1                                                                        
 LARGEST CORRECTION TO DISP.        3.893E-08   AT NODE      30470   DOF  2
   INSTANCE: CHD2-M-1                                                                        
          FORCE     EQUILIBRIUM NOT ACHIEVED WITHIN TOLERANCE.

 AVERAGE HEAT FLUX                   0.00       TIME AVG. HEAT FLUX   1.000E-02
 ALL HEAT FLUX RESIDUALS ARE ZERO
 ALL TEMP.    INCREMENTS ARE ZERO
 ALL CORRECTION TO TEMP.    ARE ZERO
          THERE IS ZERO HEAT FLUX EVERYWHERE
 
	UNSYMMETRIC NEW DIRECT SPARSE SOLVER RUNNING ON
 	1 HOST x 1 MPI RANK PER HOST x 8 THREADS PER RANK
        NUMBER OF EQUATIONS:  193158
        NUMBER OF RHS:        1
        NUMBER OF FLOPS:      3.029e+11
        SOLVER ELAPSED TIME:  2.5s

               CONVERGENCE CHECKS FOR EQUILIBRIUM ITERATION     2


 AVERAGE FORCE                       4.35       TIME AVG. FORCE        2.27    
 LARGEST SCALED RESIDUAL FORCE      7.031E-04   AT NODE      54771   DOF  2
   INSTANCE: CHD2-M-1                                                                        
  CORRESPONDING RESIDUAL FORCE      7.031E-04
 LARGEST INCREMENT OF DISP.         1.900E-05   AT NODE      11647   DOF  2
   INSTANCE: CHD2-M-1                                                                        
 LARGEST CORRECTION TO DISP.       -6.180E-10   AT NODE      52602   DOF  2
   INSTANCE: CHD2-M-1                                                                        
          THE FORCE     EQUILIBRIUM EQUATIONS HAVE CONVERGED

 AVERAGE HEAT FLUX                   0.00       TIME AVG. HEAT FLUX   1.000E-02
 ALL HEAT FLUX RESIDUALS ARE ZERO
 ALL TEMP.    INCREMENTS ARE ZERO
 ALL CORRECTION TO TEMP.    ARE ZERO
          THERE IS ZERO HEAT FLUX EVERYWHERE

 MAXIMUM NON-PRESCRIBED INCREMENT IN TEMPERATURE IS    0.00    

 ITERATION SUMMARY FOR THE INCREMENT:   2 TOTAL ITERATIONS, OF WHICH
   0 ARE SEVERE DISCONTINUITY ITERATIONS AND  2 ARE EQUILIBRIUM ITERATIONS.

 TIME INCREMENT COMPLETED   10.0    ,  FRACTION OF STEP COMPLETED  0.370    
 STEP TIME COMPLETED        370.    ,  TOTAL TIME COMPLETED         370.    


  INCREMENT    38 STARTS. ATTEMPT NUMBER  1, TIME INCREMENT   10.0    
 
	UNSYMMETRIC NEW DIRECT SPARSE SOLVER RUNNING ON
 	1 HOST x 1 MPI RANK PER HOST x 8 THREADS PER RANK
        NUMBER OF EQUATIONS:  193158
        NUMBER OF RHS:        1
        NUMBER OF FLOPS:      3.029e+11
        SOLVER ELAPSED TIME:  2.5s

               CONVERGENCE CHECKS FOR EQUILIBRIUM ITERATION     1


 AVERAGE FORCE                       4.45       TIME AVG. FORCE        2.33    
 LARGEST SCALED RESIDUAL FORCE      1.731E-02   AT NODE      52023   DOF  2
   INSTANCE: CHD2-M-1                                                                        
  CORRESPONDING RESIDUAL FORCE      1.731E-02
 LARGEST INCREMENT OF DISP.         1.900E-05   AT NODE      11647   DOF  2
   INSTANCE: CHD2-M-1                                                                        
 LARGEST CORRECTION TO DISP.        4.564E-08   AT NODE      30366   DOF  2
   INSTANCE: CHD2-M-1                                                                        
          FORCE     EQUILIBRIUM NOT ACHIEVED WITHIN TOLERANCE.

 AVERAGE HEAT FLUX                   0.00       TIME AVG. HEAT FLUX   1.000E-02
 ALL HEAT FLUX RESIDUALS ARE ZERO
 ALL TEMP.    INCREMENTS ARE ZERO
 ALL CORRECTION TO TEMP.    ARE ZERO
          THERE IS ZERO HEAT FLUX EVERYWHERE
 
	UNSYMMETRIC NEW DIRECT SPARSE SOLVER RUNNING ON
 	1 HOST x 1 MPI RANK PER HOST x 8 THREADS PER RANK
        NUMBER OF EQUATIONS:  193158
        NUMBER OF RHS:        1
        NUMBER OF FLOPS:      3.029e+11
        SOLVER ELAPSED TIME:  2.5s

               CONVERGENCE CHECKS FOR EQUILIBRIUM ITERATION     2


 AVERAGE FORCE                       4.45       TIME AVG. FORCE        2.33    
 LARGEST SCALED RESIDUAL FORCE      2.850E-04   AT NODE      49971   DOF  2
   INSTANCE: CHD2-M-1                                                                        
  CORRESPONDING RESIDUAL FORCE      2.850E-04
 LARGEST INCREMENT OF DISP.         1.900E-05   AT NODE      11647   DOF  2
   INSTANCE: CHD2-M-1                                                                        
 LARGEST CORRECTION TO DISP.       -9.138E-10   AT NODE      54491   DOF  2
   INSTANCE: CHD2-M-1                                                                        
          THE FORCE     EQUILIBRIUM EQUATIONS HAVE CONVERGED

 AVERAGE HEAT FLUX                   0.00       TIME AVG. HEAT FLUX   1.000E-02
 ALL HEAT FLUX RESIDUALS ARE ZERO
 ALL TEMP.    INCREMENTS ARE ZERO
 ALL CORRECTION TO TEMP.    ARE ZERO
          THERE IS ZERO HEAT FLUX EVERYWHERE

 MAXIMUM NON-PRESCRIBED INCREMENT IN TEMPERATURE IS    0.00    

 ITERATION SUMMARY FOR THE INCREMENT:   2 TOTAL ITERATIONS, OF WHICH
   0 ARE SEVERE DISCONTINUITY ITERATIONS AND  2 ARE EQUILIBRIUM ITERATIONS.

 TIME INCREMENT COMPLETED   10.0    ,  FRACTION OF STEP COMPLETED  0.380    
 STEP TIME COMPLETED        380.    ,  TOTAL TIME COMPLETED         380.    


  INCREMENT    39 STARTS. ATTEMPT NUMBER  1, TIME INCREMENT   10.0    
 
	UNSYMMETRIC NEW DIRECT SPARSE SOLVER RUNNING ON
 	1 HOST x 1 MPI RANK PER HOST x 8 THREADS PER RANK
        NUMBER OF EQUATIONS:  193158
        NUMBER OF RHS:        1
        NUMBER OF FLOPS:      3.029e+11
        SOLVER ELAPSED TIME:  2.6s

               CONVERGENCE CHECKS FOR EQUILIBRIUM ITERATION     1


 AVERAGE FORCE                       4.54       TIME AVG. FORCE        2.39    
 LARGEST SCALED RESIDUAL FORCE      1.322E-02   AT NODE      51906   DOF  1
   INSTANCE: CHD2-M-1                                                                        
  CORRESPONDING RESIDUAL FORCE      1.322E-02
 LARGEST INCREMENT OF DISP.         1.900E-05   AT NODE      11647   DOF  2
   INSTANCE: CHD2-M-1                                                                        
 LARGEST CORRECTION TO DISP.        5.594E-08   AT NODE      30209   DOF  2
   INSTANCE: CHD2-M-1                                                                        
[...]
 LARGEST SCALED RESIDUAL FORCE      0.554       AT NODE       2133   DOF  3
   INSTANCE: CHD2-M-1                                                                        
  CORRESPONDING RESIDUAL FORCE      0.554    
 LARGEST INCREMENT OF DISP.         2.831E-05   AT NODE       3121   DOF  2
   INSTANCE: CHD2-M-1                                                                        
 LARGEST CORRECTION TO DISP.        2.249E-06   AT NODE        211   DOF  2
   INSTANCE: CHD2-M-1                                                                        
          FORCE     EQUILIBRIUM NOT ACHIEVED WITHIN TOLERANCE.

 AVERAGE HEAT FLUX                   0.00       TIME AVG. HEAT FLUX   1.000E-02
 ALL HEAT FLUX RESIDUALS ARE ZERO
 ALL TEMP.    INCREMENTS ARE ZERO
 ALL CORRECTION TO TEMP.    ARE ZERO
          THERE IS ZERO HEAT FLUX EVERYWHERE
 
	UNSYMMETRIC NEW DIRECT SPARSE SOLVER RUNNING ON
 	1 HOST x 1 MPI RANK PER HOST x 8 THREADS PER RANK
        NUMBER OF EQUATIONS:  193158
        NUMBER OF RHS:        1
        NUMBER OF FLOPS:      3.029e+11
        SOLVER ELAPSED TIME:  1.8s

               CONVERGENCE CHECKS FOR EQUILIBRIUM ITERATION     2


 AVERAGE FORCE                       4.18       TIME AVG. FORCE        3.82    
 LARGEST SCALED RESIDUAL FORCE     -8.664E-02   AT NODE       8251   DOF  2
   INSTANCE: CHD2-M-1                                                                        
  CORRESPONDING RESIDUAL FORCE     -8.664E-02
 LARGEST INCREMENT OF DISP.         2.777E-05   AT NODE       3121   DOF  2
   INSTANCE: CHD2-M-1                                                                        
 LARGEST CORRECTION TO DISP.        6.103E-07   AT NODE      15068   DOF  1
   INSTANCE: CHD2-M-1                                                                        
          FORCE     EQUILIBRIUM NOT ACHIEVED WITHIN TOLERANCE.

 AVERAGE HEAT FLUX                   0.00       TIME AVG. HEAT FLUX   1.000E-02
 ALL HEAT FLUX RESIDUALS ARE ZERO
 ALL TEMP.    INCREMENTS ARE ZERO
 ALL CORRECTION TO TEMP.    ARE ZERO
          THERE IS ZERO HEAT FLUX EVERYWHERE
 
	UNSYMMETRIC NEW DIRECT SPARSE SOLVER RUNNING ON
 	1 HOST x 1 MPI RANK PER HOST x 8 THREADS PER RANK
        NUMBER OF EQUATIONS:  193158
        NUMBER OF RHS:        1
        NUMBER OF FLOPS:      3.029e+11
        SOLVER ELAPSED TIME:  1.7s

               CONVERGENCE CHECKS FOR EQUILIBRIUM ITERATION     3


 AVERAGE FORCE                       4.18       TIME AVG. FORCE        3.82    
 LARGEST SCALED RESIDUAL FORCE      2.117E-02   AT NODE      55049   DOF  1
   INSTANCE: CHD2-M-1                                                                        
  CORRESPONDING RESIDUAL FORCE      2.117E-02
 LARGEST INCREMENT OF DISP.         2.779E-05   AT NODE       3121   DOF  2
   INSTANCE: CHD2-M-1                                                                        
 LARGEST CORRECTION TO DISP.       -9.256E-08   AT NODE       6083   DOF  1
   INSTANCE: CHD2-M-1                                                                        
          FORCE     EQUILIBRIUM NOT ACHIEVED WITHIN TOLERANCE.

 AVERAGE HEAT FLUX                   0.00       TIME AVG. HEAT FLUX   1.000E-02
 ALL HEAT FLUX RESIDUALS ARE ZERO
 ALL TEMP.    INCREMENTS ARE ZERO
 ALL CORRECTION TO TEMP.    ARE ZERO
          THERE IS ZERO HEAT FLUX EVERYWHERE
 
	UNSYMMETRIC NEW DIRECT SPARSE SOLVER RUNNING ON
 	1 HOST x 1 MPI RANK PER HOST x 8 THREADS PER RANK
        NUMBER OF EQUATIONS:  193158
        NUMBER OF RHS:        1
        NUMBER OF FLOPS:      3.029e+11
        SOLVER ELAPSED TIME:  1.7s

               CONVERGENCE CHECKS FOR EQUILIBRIUM ITERATION     4


 AVERAGE FORCE                       4.18       TIME AVG. FORCE        3.82    
 LARGEST SCALED RESIDUAL FORCE      6.028E-04   AT NODE       8067   DOF  1
   INSTANCE: CHD2-M-1                                                                        
  CORRESPONDING RESIDUAL FORCE      6.028E-04
 LARGEST INCREMENT OF DISP.         2.779E-05   AT NODE       3121   DOF  2
   INSTANCE: CHD2-M-1                                                                        
 LARGEST CORRECTION TO DISP.       -3.749E-09   AT NODE      43632   DOF  1
   INSTANCE: CHD2-M-1                                                                        
          THE FORCE     EQUILIBRIUM EQUATIONS HAVE CONVERGED

 AVERAGE HEAT FLUX                   0.00       TIME AVG. HEAT FLUX   1.000E-02
 ALL HEAT FLUX RESIDUALS ARE ZERO
 ALL TEMP.    INCREMENTS ARE ZERO
 ALL CORRECTION TO TEMP.    ARE ZERO
          THERE IS ZERO HEAT FLUX EVERYWHERE

 MAXIMUM NON-PRESCRIBED INCREMENT IN TEMPERATURE IS    0.00    

 ITERATION SUMMARY FOR THE INCREMENT:   4 TOTAL ITERATIONS, OF WHICH
   0 ARE SEVERE DISCONTINUITY ITERATIONS AND  4 ARE EQUILIBRIUM ITERATIONS.

 TIME INCREMENT COMPLETED   10.0    ,  FRACTION OF STEP COMPLETED  0.970    
 STEP TIME COMPLETED        970.    ,  TOTAL TIME COMPLETED         970.    


  INCREMENT    98 STARTS. ATTEMPT NUMBER  1, TIME INCREMENT   10.0    
 
	UNSYMMETRIC NEW DIRECT SPARSE SOLVER RUNNING ON
 	1 HOST x 1 MPI RANK PER HOST x 8 THREADS PER RANK
        NUMBER OF EQUATIONS:  193158
        NUMBER OF RHS:        1
        NUMBER OF FLOPS:      3.029e+11
        SOLVER ELAPSED TIME:  1.7s

               CONVERGENCE CHECKS FOR EQUILIBRIUM ITERATION     1


 AVERAGE FORCE                       4.11       TIME AVG. FORCE        3.82    
 LARGEST SCALED RESIDUAL FORCE     -0.715       AT NODE       6763   DOF  2
   INSTANCE: CHD2-M-1                                                                        
  CORRESPONDING RESIDUAL FORCE     -0.715    
 LARGEST INCREMENT OF DISP.         2.881E-05   AT NODE       3074   DOF  2
   INSTANCE: CHD2-M-1                                                                        
 LARGEST CORRECTION TO DISP.        2.428E-06   AT NODE        197   DOF  2
   INSTANCE: CHD2-M-1                                                                        
          FORCE     EQUILIBRIUM NOT ACHIEVED WITHIN TOLERANCE.

 AVERAGE HEAT FLUX                   0.00       TIME AVG. HEAT FLUX   1.000E-02
 ALL HEAT FLUX RESIDUALS ARE ZERO
 ALL TEMP.    INCREMENTS ARE ZERO
 ALL CORRECTION TO TEMP.    ARE ZERO
          THERE IS ZERO HEAT FLUX EVERYWHERE
 
	UNSYMMETRIC NEW DIRECT SPARSE SOLVER RUNNING ON
 	1 HOST x 1 MPI RANK PER HOST x 8 THREADS PER RANK
        NUMBER OF EQUATIONS:  193158
        NUMBER OF RHS:        1
        NUMBER OF FLOPS:      3.029e+11
        SOLVER ELAPSED TIME:  1.8s

               CONVERGENCE CHECKS FOR EQUILIBRIUM ITERATION     2


 AVERAGE FORCE                       4.11       TIME AVG. FORCE        3.82    
 LARGEST SCALED RESIDUAL FORCE     -0.110       AT NODE       7504   DOF  2
   INSTANCE: CHD2-M-1                                                                        
  CORRESPONDING RESIDUAL FORCE     -0.110    
 LARGEST INCREMENT OF DISP.         2.820E-05   AT NODE       3074   DOF  2
   INSTANCE: CHD2-M-1                                                                        
 LARGEST CORRECTION TO DISP.        6.781E-07   AT NODE      15068   DOF  1
   INSTANCE: CHD2-M-1                                                                        
          FORCE     EQUILIBRIUM NOT ACHIEVED WITHIN TOLERANCE.

 AVERAGE HEAT FLUX                   0.00       TIME AVG. HEAT FLUX   1.000E-02
 ALL HEAT FLUX RESIDUALS ARE ZERO
 ALL TEMP.    INCREMENTS ARE ZERO
 ALL CORRECTION TO TEMP.    ARE ZERO
          THERE IS ZERO HEAT FLUX EVERYWHERE
 
	UNSYMMETRIC NEW DIRECT SPARSE SOLVER RUNNING ON
 	1 HOST x 1 MPI RANK PER HOST x 8 THREADS PER RANK
        NUMBER OF EQUATIONS:  193158
        NUMBER OF RHS:        1
        NUMBER OF FLOPS:      3.029e+11
        SOLVER ELAPSED TIME:  1.9s

               CONVERGENCE CHECKS FOR EQUILIBRIUM ITERATION     3


 AVERAGE FORCE                       4.11       TIME AVG. FORCE        3.82    
 LARGEST SCALED RESIDUAL FORCE      1.220E-02   AT NODE       6391   DOF  3
   INSTANCE: CHD2-M-1                                                                        
  CORRESPONDING RESIDUAL FORCE      1.220E-02
 LARGEST INCREMENT OF DISP.         2.822E-05   AT NODE       3074   DOF  2
   INSTANCE: CHD2-M-1                                                                        
 LARGEST CORRECTION TO DISP.       -1.117E-07   AT NODE       6083   DOF  1
   INSTANCE: CHD2-M-1                                                                        
          THE FORCE     EQUILIBRIUM EQUATIONS HAVE CONVERGED

 AVERAGE HEAT FLUX                   0.00       TIME AVG. HEAT FLUX   1.000E-02
 ALL HEAT FLUX RESIDUALS ARE ZERO
 ALL TEMP.    INCREMENTS ARE ZERO
 ALL CORRECTION TO TEMP.    ARE ZERO
          THERE IS ZERO HEAT FLUX EVERYWHERE

 MAXIMUM NON-PRESCRIBED INCREMENT IN TEMPERATURE IS    0.00    

 ITERATION SUMMARY FOR THE INCREMENT:   3 TOTAL ITERATIONS, OF WHICH
   0 ARE SEVERE DISCONTINUITY ITERATIONS AND  3 ARE EQUILIBRIUM ITERATIONS.

 TIME INCREMENT COMPLETED   10.0    ,  FRACTION OF STEP COMPLETED  0.980    
 STEP TIME COMPLETED        980.    ,  TOTAL TIME COMPLETED         980.    


  INCREMENT    99 STARTS. ATTEMPT NUMBER  1, TIME INCREMENT   10.0    
 
	UNSYMMETRIC NEW DIRECT SPARSE SOLVER RUNNING ON
 	1 HOST x 1 MPI RANK PER HOST x 8 THREADS PER RANK
        NUMBER OF EQUATIONS:  193158
        NUMBER OF RHS:        1
        NUMBER OF FLOPS:      3.029e+11
        SOLVER ELAPSED TIME:  1.8s

               CONVERGENCE CHECKS FOR EQUILIBRIUM ITERATION     1


 AVERAGE FORCE                       4.04       TIME AVG. FORCE        3.82    
 LARGEST SCALED RESIDUAL FORCE     -0.970       AT NODE       3074   DOF  2
   INSTANCE: CHD2-M-1                                                                        
  CORRESPONDING RESIDUAL FORCE     -0.970    
 LARGEST INCREMENT OF DISP.         2.928E-05   AT NODE       3074   DOF  2
   INSTANCE: CHD2-M-1                                                                        
 LARGEST CORRECTION TO DISP.       -2.593E-06   AT NODE        211   DOF  1
   INSTANCE: CHD2-M-1                                                                        
          FORCE     EQUILIBRIUM NOT ACHIEVED WITHIN TOLERANCE.

 AVERAGE HEAT FLUX                   0.00       TIME AVG. HEAT FLUX   1.000E-02
 ALL HEAT FLUX RESIDUALS ARE ZERO
 ALL TEMP.    INCREMENTS ARE ZERO
 ALL CORRECTION TO TEMP.    ARE ZERO
          THERE IS ZERO HEAT FLUX EVERYWHERE
 
	UNSYMMETRIC NEW DIRECT SPARSE SOLVER RUNNING ON
 	1 HOST x 1 MPI RANK PER HOST x 8 THREADS PER RANK
        NUMBER OF EQUATIONS:  193158
        NUMBER OF RHS:        1
        NUMBER OF FLOPS:      3.029e+11
        SOLVER ELAPSED TIME:  1.7s

               CONVERGENCE CHECKS FOR EQUILIBRIUM ITERATION     2


 AVERAGE FORCE                       4.05       TIME AVG. FORCE        3.82    
 LARGEST SCALED RESIDUAL FORCE     -0.121       AT NODE       5568   DOF  2
   INSTANCE: CHD2-M-1                                                                        
  CORRESPONDING RESIDUAL FORCE     -0.121    
 LARGEST INCREMENT OF DISP.         2.857E-05   AT NODE       3074   DOF  2
   INSTANCE: CHD2-M-1                                                                        
 LARGEST CORRECTION TO DISP.       -7.365E-07   AT NODE       3062   DOF  2
   INSTANCE: CHD2-M-1                                                                        
          FORCE     EQUILIBRIUM NOT ACHIEVED WITHIN TOLERANCE.

 AVERAGE HEAT FLUX                   0.00       TIME AVG. HEAT FLUX   1.000E-02
 ALL HEAT FLUX RESIDUALS ARE ZERO
 ALL TEMP.    INCREMENTS ARE ZERO
 ALL CORRECTION TO TEMP.    ARE ZERO
          THERE IS ZERO HEAT FLUX EVERYWHERE
 
	UNSYMMETRIC NEW DIRECT SPARSE SOLVER RUNNING ON
 	1 HOST x 1 MPI RANK PER HOST x 8 THREADS PER RANK
        NUMBER OF EQUATIONS:  193158
        NUMBER OF RHS:        1
        NUMBER OF FLOPS:      3.029e+11
        SOLVER ELAPSED TIME:  2.5s

               CONVERGENCE CHECKS FOR EQUILIBRIUM ITERATION     3


 AVERAGE FORCE                       4.05       TIME AVG. FORCE        3.82    
 LARGEST SCALED RESIDUAL FORCE     -2.756E-02   AT NODE       8248   DOF  2
   INSTANCE: CHD2-M-1                                                                        
  CORRESPONDING RESIDUAL FORCE     -2.756E-02
 LARGEST INCREMENT OF DISP.         2.860E-05   AT NODE       3074   DOF  2
   INSTANCE: CHD2-M-1                                                                        
 LARGEST CORRECTION TO DISP.       -1.303E-07   AT NODE       6083   DOF  1
   INSTANCE: CHD2-M-1                                                                        
          FORCE     EQUILIBRIUM NOT ACHIEVED WITHIN TOLERANCE.

 AVERAGE HEAT FLUX                   0.00       TIME AVG. HEAT FLUX   1.000E-02
 ALL HEAT FLUX RESIDUALS ARE ZERO
 ALL TEMP.    INCREMENTS ARE ZERO
 ALL CORRECTION TO TEMP.    ARE ZERO
          THERE IS ZERO HEAT FLUX EVERYWHERE
 
	UNSYMMETRIC NEW DIRECT SPARSE SOLVER RUNNING ON
 	1 HOST x 1 MPI RANK PER HOST x 8 THREADS PER RANK
        NUMBER OF EQUATIONS:  193158
        NUMBER OF RHS:        1
        NUMBER OF FLOPS:      3.029e+11
        SOLVER ELAPSED TIME:  2.5s

               CONVERGENCE CHECKS FOR EQUILIBRIUM ITERATION     4


 AVERAGE FORCE                       4.05       TIME AVG. FORCE        3.82    
 LARGEST SCALED RESIDUAL FORCE      1.910E-03   AT NODE       8250   DOF  2
   INSTANCE: CHD2-M-1                                                                        
  CORRESPONDING RESIDUAL FORCE      1.910E-03
 LARGEST INCREMENT OF DISP.         2.860E-05   AT NODE       3074   DOF  2
   INSTANCE: CHD2-M-1                                                                        
 LARGEST CORRECTION TO DISP.       -3.729E-09   AT NODE       5110   DOF  1
   INSTANCE: CHD2-M-1                                                                        
          THE FORCE     EQUILIBRIUM EQUATIONS HAVE CONVERGED

 AVERAGE HEAT FLUX                   0.00       TIME AVG. HEAT FLUX   1.000E-02
 ALL HEAT FLUX RESIDUALS ARE ZERO
 ALL TEMP.    INCREMENTS ARE ZERO
 ALL CORRECTION TO TEMP.    ARE ZERO
          THERE IS ZERO HEAT FLUX EVERYWHERE

 MAXIMUM NON-PRESCRIBED INCREMENT IN TEMPERATURE IS    0.00    

 ITERATION SUMMARY FOR THE INCREMENT:   4 TOTAL ITERATIONS, OF WHICH
   0 ARE SEVERE DISCONTINUITY ITERATIONS AND  4 ARE EQUILIBRIUM ITERATIONS.

 TIME INCREMENT COMPLETED   10.0    ,  FRACTION OF STEP COMPLETED  0.990    
 STEP TIME COMPLETED        990.    ,  TOTAL TIME COMPLETED         990.    


  INCREMENT   100 STARTS. ATTEMPT NUMBER  1, TIME INCREMENT   10.0    
 
	UNSYMMETRIC NEW DIRECT SPARSE SOLVER RUNNING ON
 	1 HOST x 1 MPI RANK PER HOST x 8 THREADS PER RANK
        NUMBER OF EQUATIONS:  193158
        NUMBER OF RHS:        1
        NUMBER OF FLOPS:      3.029e+11
        SOLVER ELAPSED TIME:  2.5s

               CONVERGENCE CHECKS FOR EQUILIBRIUM ITERATION     1


 AVERAGE FORCE                       3.97       TIME AVG. FORCE        3.82    
 LARGEST SCALED RESIDUAL FORCE     -0.885       AT NODE       6388   DOF  2
   INSTANCE: CHD2-M-1                                                                        
  CORRESPONDING RESIDUAL FORCE     -0.885    
 LARGEST INCREMENT OF DISP.         2.964E-05   AT NODE       3074   DOF  2
   INSTANCE: CHD2-M-1                                                                        
 LARGEST CORRECTION TO DISP.       -2.872E-06   AT NODE        211   DOF  1
   INSTANCE: CHD2-M-1                                                                        
          FORCE     EQUILIBRIUM NOT ACHIEVED WITHIN TOLERANCE.

 AVERAGE HEAT FLUX                   0.00       TIME AVG. HEAT FLUX   1.000E-02
 ALL HEAT FLUX RESIDUALS ARE ZERO
 ALL TEMP.    INCREMENTS ARE ZERO
 ALL CORRECTION TO TEMP.    ARE ZERO
          THERE IS ZERO HEAT FLUX EVERYWHERE
 
	UNSYMMETRIC NEW DIRECT SPARSE SOLVER RUNNING ON
 	1 HOST x 1 MPI RANK PER HOST x 8 THREADS PER RANK
        NUMBER OF EQUATIONS:  193158
        NUMBER OF RHS:        1
        NUMBER OF FLOPS:      3.029e+11
        SOLVER ELAPSED TIME:  2.5s

               CONVERGENCE CHECKS FOR EQUILIBRIUM ITERATION     2


 AVERAGE FORCE                       3.98       TIME AVG. FORCE        3.82    
 LARGEST SCALED RESIDUAL FORCE     -9.201E-02   AT NODE        858   DOF  3
   INSTANCE: CHD2-M-1                                                                        
  CORRESPONDING RESIDUAL FORCE     -9.201E-02
 LARGEST INCREMENT OF DISP.         2.891E-05   AT NODE       3074   DOF  2
   INSTANCE: CHD2-M-1                                                                        
 LARGEST CORRECTION TO DISP.       -8.178E-07   AT NODE        306   DOF  2
   INSTANCE: CHD2-M-1                                                                        
          FORCE     EQUILIBRIUM NOT ACHIEVED WITHIN TOLERANCE.

 AVERAGE HEAT FLUX                   0.00       TIME AVG. HEAT FLUX   1.000E-02
 ALL HEAT FLUX RESIDUALS ARE ZERO
 ALL TEMP.    INCREMENTS ARE ZERO
 ALL CORRECTION TO TEMP.    ARE ZERO
          THERE IS ZERO HEAT FLUX EVERYWHERE
 
	UNSYMMETRIC NEW DIRECT SPARSE SOLVER RUNNING ON
 	1 HOST x 1 MPI RANK PER HOST x 8 THREADS PER RANK
        NUMBER OF EQUATIONS:  193158
        NUMBER OF RHS:        1
        NUMBER OF FLOPS:      3.029e+11
        SOLVER ELAPSED TIME:  2.6s

               CONVERGENCE CHECKS FOR EQUILIBRIUM ITERATION     3


 AVERAGE FORCE                       3.98       TIME AVG. FORCE        3.82    
 LARGEST SCALED RESIDUAL FORCE      1.089E-02   AT NODE       1209   DOF  2
   INSTANCE: CHD2-M-1                                                                        
  CORRESPONDING RESIDUAL FORCE      1.089E-02
 LARGEST INCREMENT OF DISP.         2.894E-05   AT NODE       3074   DOF  2
   INSTANCE: CHD2-M-1                                                                        
 LARGEST CORRECTION TO DISP.       -1.384E-07   AT NODE       6083   DOF  1
   INSTANCE: CHD2-M-1                                                                        
          THE FORCE     EQUILIBRIUM EQUATIONS HAVE CONVERGED

 AVERAGE HEAT FLUX                   0.00       TIME AVG. HEAT FLUX   1.000E-02
 ALL HEAT FLUX RESIDUALS ARE ZERO
 ALL TEMP.    INCREMENTS ARE ZERO
 ALL CORRECTION TO TEMP.    ARE ZERO
          THERE IS ZERO HEAT FLUX EVERYWHERE

 MAXIMUM NON-PRESCRIBED INCREMENT IN TEMPERATURE IS    0.00    

 ITERATION SUMMARY FOR THE INCREMENT:   3 TOTAL ITERATIONS, OF WHICH
   0 ARE SEVERE DISCONTINUITY ITERATIONS AND  3 ARE EQUILIBRIUM ITERATIONS.

 TIME INCREMENT COMPLETED   10.0    ,  FRACTION OF STEP COMPLETED   1.00    
 STEP TIME COMPLETED       1.000E+03,  TOTAL TIME COMPLETED        1.000E+03


          THE ANALYSIS HAS BEEN COMPLETED



     ANALYSIS SUMMARY:
     TOTAL OF        100  INCREMENTS
                       0  CUTBACKS IN AUTOMATIC INCREMENTATION
                     218  ITERATIONS INCLUDING CONTACT ITERATIONS IF PRESENT
                     218  PASSES THROUGH THE EQUATION SOLVER OF WHICH 
                     218  INVOLVE MATRIX DECOMPOSITION, INCLUDING
                       0  DECOMPOSITION(S) OF THE MASS MATRIX
                       1  REORDERING OF EQUATIONS TO MINIMIZE WAVEFRONT
                       0  ADDITIONAL RESIDUAL EVALUATIONS FOR LINE SEARCHES
                       0  ADDITIONAL OPERATOR EVALUATIONS FOR LINE SEARCHES
                       5  WARNING MESSAGES DURING USER INPUT PROCESSING
                       0  WARNING MESSAGES DURING ANALYSIS
                       0  ANALYSIS WARNINGS ARE NUMERICAL PROBLEM MESSAGES
                       0  ANALYSIS WARNINGS ARE NEGATIVE EIGENVALUE MESSAGES
                       0  ERROR MESSAGES



     JOB TIME SUMMARY
       USER TIME (SEC)      =     2.54E+03
       SYSTEM TIME (SEC)    =      40.    
       TOTAL CPU TIME (SEC) =     2.58E+03
       WALLCLOCK TIME (SEC) =          826
       MEMORY PEAK (GB)     =            1
