*HEADING 
Tube1 - 2D plane strain - cpe8r, linear analysis
*NODE, SYSTEM=R
          1, 5.5020690E-02, 2.7075212E-02, 0.0000000E+00
          2, 5.5020690E-02, 3.1075213E-02, 0.0000000E+00
          3, 5.5020690E-02, 3.5075214E-02, 0.0000000E+00
          4, 5.5020690E-02, 3.9075214E-02, 0.0000000E+00
          5, 5.5020690E-02, 2.7075212E-02, 2.5000000E-02
          6, 5.5020690E-02, 3.1075213E-02, 2.5000000E-02
          7, 5.5020690E-02, 3.5075214E-02, 2.5000000E-02
          8, 5.5020690E-02, 3.9075214E-02, 2.5000000E-02
          9, 5.5020690E-02, 2.7075212E-02, 5.0000001E-02
         10, 5.5020690E-02, 3.1075213E-02, 5.0000001E-02
         11, 5.5020690E-02, 3.5075214E-02, 5.0000001E-02
         12, 5.5020690E-02, 3.9075214E-02, 5.0000001E-02
         13, 5.5020690E-02, 2.7075212E-02, 7.4999996E-02
         14, 5.5020690E-02, 3.1075213E-02, 7.4999996E-02
         15, 5.5020690E-02, 3.5075214E-02, 7.4999996E-02
         16, 5.5020690E-02, 3.9075214E-02, 7.4999996E-02
         17, 5.5020690E-02, 2.7075212E-02, 1.0000000E-01
         18, 5.5020690E-02, 3.1075213E-02, 1.0000000E-01
         19, 5.5020690E-02, 3.5075214E-02, 1.0000000E-01
         20, 5.5020690E-02, 3.9075214E-02, 1.0000000E-01
** ... 16566 like lines cut
*ELEMENT, TYPE=CPE8R, ELSET=TUBE
  10042,    166,     82,     81,    165,   7263,   5299,   5312,   7262
  10044,    167,     83,     82,    166,   7265,   5300,   7263,   7264
  10046,    168,     84,     83,    167,   5322,   5301,   7265,   7266
  10088,    250,    166,    165,    249,   7268,   7262,   5313,   7267
  10090,    251,    167,    166,    250,   7270,   7264,   7268,   7269
  10092,    252,    168,    167,    251,   5323,   7266,   7270,   7271
  10134,    334,    250,    249,    333,   7273,   7267,   5314,   7272
  10136,    335,    251,    250,    334,   7275,   7269,   7273,   7274
  10138,    336,    252,    251,    335,   5324,   7271,   7275,   7276
  10180,    418,    334,    333,    417,   7278,   7272,   5315,   7277
  10182,    419,    335,    334,    418,   7280,   7274,   7278,   7279
  10184,    420,    336,    335,    419,   5325,   7276,   7280,   7281
  10226,    502,    418,    417,    501,   7283,   7277,   5316,   7282
  10228,    503,    419,    418,    502,   7285,   7279,   7283,   7284
  10230,    504,    420,    419,    503,   5326,   7281,   7285,   7286
  10272,    586,    502,    501,    585,   7288,   7282,   5317,   7287
  10274,    587,    503,    502,    586,   7290,   7284,   7288,   7289
  10276,    588,    504,    503,    587,   5327,   7286,   7290,   7291
  10318,    670,    586,    585,    669,   7293,   7287,   5318,   7292
  10320,    671,    587,    586,    670,   7295,   7289,   7293,   7294
** ... 139 like lines cut
*NSET,NSET=GR000005
    81,    82,    83,    84,   165,   166,   167,   168,   249,   250,   251
   252,   333,   334,   335,   336,   417,   418,   419,   420,   501,   502
   503,   504,   585,   586,   587,   588,   669,   670,   671,   672,   753
   754,   755,   756,   837,   838,   839,   840,   921,   922,   923,   924
   946,   967,   988,  1009,  1030,  1051,  1072,  1093,  1114,  1135,  1177
  1198,  1219,  1240,  1261,  1282,  1303,  1324,  1345,  1366,  1408,  1429
  1450,  1471,  1492,  1513,  1534,  1555,  1576,  1597,  1639,  1660,  1681
  1702,  1723,  1744,  1765,  1786,  1807,  1828,  1869,  1890,  1911,  1932
  1953,  1995,  2016,  2037,  2058,  2079,  2121,  2142,  2163,  2184,  2205
  2247,  2268,  2289,  2310,  2331,  2712,  2713,  2714,  2715,  2716,  2717
  2718,  2719,  2720,  2721,  2722,  2723,  2724,  2725,  2726,  2727,  2728
  2729,  2730,  3111,  3112,  3113,  3114,  3115,  3116,  3117,  3118,  3119
  3120,  3121,  3122,  3123,  3124,  3125,  3126,  3127,  3128,  3129,  3510
  3511,  3512,  3513,  3514,  3515,  3516,  3517,  3518,  3519,  3520,  3521
  3522,  3523,  3524,  3525,  3526,  3527,  3528,  3910,  3911,  3912,  3913
  3914,  3915,  3916,  3917,  3918,  3919,  3920,  3921,  3922,  3923,  3924
  3925,  3926,  3927,  3949,  3970,  3991,  4012,  4033,  4075,  4096,  4117
  4138,  4159,  4201,  4222,  4243,  4264,  4285,  4327,  4348,  4369,  4390
  4411,  4473,  4494,  4515,  4536,  4557,  4599,  4620,  4641,  4662,  4683
  4725,  4746,  4767,  4788,  4809,  4830,  4831,  4832,  4878,  4879,  4903
** ... 34 like lines cut
*NSET,NSET=XSYMM   
  3927,  4327,  4348,  4369,  4390,  4411,  5279,  5280,  5281,  5282,  5283
*NSET,NSET=YSYMM   
   921,   922,   923,   924,  1869,  1995,  2121,  2247,  4033,  4159,  4285
  4411,  4557,  4683,  4809,  4903,  4904,  4905,  5093,  5094,  5095,  5332
  5333,  5334,  5337,  5338,  5339
*ELSET,ELSET=GR000002
 10042, 10044, 10046, 10088, 10090, 10092, 10134, 10136, 10138, 10180, 10182
 10184, 10226, 10228, 10230, 10272, 10274, 10276, 10318, 10320, 10322, 10364
 10366, 10368, 10410, 10412, 10414, 10514, 10517, 10520, 10522, 10544, 10566
 10588, 10610, 10632, 10654, 10676, 10698, 10720, 10741, 10743, 10745, 10747
 10749, 10751, 10753, 10755, 10757, 10759, 10762, 10784, 10806, 10828, 10850
 10872, 10894, 10916, 10938, 10960, 11022, 11044, 11066, 11088, 11110, 11132
 11134, 11136, 11138, 11140, 11162, 11164, 11166, 11168, 11170, 11532, 11534
 11536, 11538, 11540, 11542, 11544, 11546, 11548, 11550, 11552, 11554, 11556
 11558, 11560, 11562, 11564, 11566, 11585, 11586, 11587, 11588, 11589, 11590
 11591, 11592, 11593, 11594, 11595, 11596, 11597, 11598, 11599, 11600, 11601
 11602, 11964, 11966, 11968, 11970, 11972, 11974, 11976, 11978, 11980, 11982
 11984, 11986, 11988, 11990, 11992, 11994, 11996, 11998, 12000, 12022, 12044
 12066, 12089, 12129, 12131, 12133, 12135, 12138, 12160, 12182, 12204, 12226
 12249, 12310, 12332, 12354, 12376, 12417, 12420, 12422, 12424, 12426, 12447
 12450, 12452, 12454, 12456, 12477
*ELSET,ELSET=PRESS3      
 10042, 10088, 10134, 10180, 10226, 10272, 10318, 10364, 10410, 10514
*ELSET,ELSET=PRESS2      
 10522, 10544, 10566, 10588, 10610, 10632, 10654, 10676, 10698, 10720, 11022
 11044, 11066, 11088, 11110, 11532, 11534, 11536, 11538, 11540, 11542, 11544
 11546, 11548, 11550, 11552, 11554, 11556, 11558, 11560, 11562, 11564, 11566
 12000, 12022, 12044, 12066, 12089, 12310, 12332, 12354, 12376, 12417
*ELSET,ELSET=GR000005
 10042, 10044, 10046, 10088, 10090, 10092, 10134, 10136, 10138, 10180, 10182
 10184, 10226, 10228, 10230, 10272, 10274, 10276, 10318, 10320, 10322, 10364
 10366, 10368, 10410, 10412, 10414, 10514, 10517, 10520, 10522, 10544, 10566
 10588, 10610, 10632, 10654, 10676, 10698, 10720, 10741, 10743, 10745, 10747
 10749, 10751, 10753, 10755, 10757, 10759, 10762, 10784, 10806, 10828, 10850
 10872, 10894, 10916, 10938, 10960, 11022, 11044, 11066, 11088, 11110, 11132
 11134, 11136, 11138, 11140, 11162, 11164, 11166, 11168, 11170, 11532, 11534
 11536, 11538, 11540, 11542, 11544, 11546, 11548, 11550, 11552, 11554, 11556
 11558, 11560, 11562, 11564, 11566, 11585, 11586, 11587, 11588, 11589, 11590
 11591, 11592, 11593, 11594, 11595, 11596, 11597, 11598, 11599, 11600, 11601
 11602, 11964, 11966, 11968, 11970, 11972, 11974, 11976, 11978, 11980, 11982
 11984, 11986, 11988, 11990, 11992, 11994, 11996, 11998, 12000, 12022, 12044
 12066, 12089, 12129, 12131, 12133, 12135, 12138, 12160, 12182, 12204, 12226
 12249, 12310, 12332, 12354, 12376, 12417, 12420, 12422, 12424, 12426, 12447
 12450, 12452, 12454, 12456, 12477
*SOLID SECTION,ELSET=TUBE,MATERIAL=AL3102
*MATERIAL,NAME=AL3102
*DENSITY
 2.531E-04, 
*ELASTIC,TYPE=ISOTROPIC
 10.0E+06, 0.33 
******************************************************************
*STEP
*static
*RESTART, WRITE, FREQ=5
*BOUNDARY
XSYMM, XSYMM
YSYMM, YSYMM
*DLOAD
PRESS3, P3, 2000.
PRESS2, P2, 2000.
*NSET, NSET=NHIST
3919,
*FILE FORMAT, ZERO INCREMENT
*OUTPUT,FIELD,FREQ=1
*NODE OUTPUT,NSET=NHIST
U,
*ELSET, ELSET=EHIST
10522,
*OUTPUT,FIELD,FREQ=1
*ELEMENT OUTPUT,ELSET=EHIST
LOADS,
*NODE PRINT, NSET=NHIST, FREQ=1
U, 
*EL PRINT, ELSET=EHIST, FREQ=1
LOADS,
*MONITOR, NODE=3919, DOF=2
*END STEP
