1

   Abaqus 2023.HF4                                  Date 01-Jul-2024   Time 13:40:58
   For use by AALTO UNIVERSITY under license from Dassault Systemes or its subsidiary.

                                                                                 
                                                                                 
 STEP    1     INCREMENT     1     STEP TIME    0.00    


                        S T E P       1     C O U P L E D - T E M P E R A T U R E - D I S P L A C E M E N T   A N A L Y S I S


                                                                                          

     AUTOMATIC TIME CONTROL WITH -
          A SUGGESTED INITIAL TIME INCREMENT OF                 10.0    
          AND A TOTAL TIME PERIOD OF                           1.000E+03
          THE MINIMUM TIME INCREMENT ALLOWED IS                1.000E-02
          THE MAXIMUM TIME INCREMENT ALLOWED IS                 10.0    

          CREEP AND SWELLING EFFECTS ARE OMITTED IN THIS STEP

     THE SIZE OF THE TIME INCREMENT IS CONTROLLED BY -
          THE TEMPERATURE CHANGE PER INCREMENT NOT EXCEEDING            1.00    
          THE RATE DEPENDENCY WILL BE CONSIDERED IN THIS STEP

          CREEP AND SWELLING EFFECTS WILL BE IGNORED.

 CONVERGENCE TOLERANCE PARAMETERS FOR FORCE    
     CRITERION FOR RESIDUAL FORCE     FOR A NONLINEAR PROBLEM          5.000E-03
     CRITERION FOR DISP.    CORRECTION IN A NONLINEAR PROBLEM          1.000E-02
     INITIAL VALUE OF TIME AVERAGE FORCE                               1.000E-02
     AVERAGE FORCE     IS TIME AVERAGE FORCE    
     ALTERNATE CRIT. FOR RESIDUAL FORCE     FOR A NONLINEAR PROBLEM    2.000E-02
     CRITERION FOR ZERO FORCE     RELATIVE TO TIME AVRG. FORCE         1.000E-05
     CRITERION FOR RESIDUAL FORCE     WHEN THERE IS ZERO FLUX          1.000E-05
     CRITERION FOR DISP.    CORRECTION WHEN THERE IS ZERO FLUX         1.000E-03
     CRITERION FOR RESIDUAL FORCE     FOR A LINEAR INCREMENT           1.000E-08
     FIELD CONVERSION RATIO                                             1.00    
     CRITERION FOR ZERO FORCE     REL. TO TIME AVRG. MAX. FORCE        1.000E-05
     CRITERION FOR ZERO DISP.    RELATIVE TO CHARACTERISTIC LENGTH     1.000E-08

 CONVERGENCE TOLERANCE PARAMETERS FOR HEAT FLUX
     CRITERION FOR RESIDUAL HEAT FLUX FOR A NONLINEAR PROBLEM          5.000E-03
     CRITERION FOR TEMP.    CORRECTION IN A NONLINEAR PROBLEM          1.000E-02
     INITIAL VALUE OF TIME AVERAGE HEAT FLUX                           1.000E-02
     AVERAGE HEAT FLUX IS TIME AVERAGE HEAT FLUX
     ALTERNATE CRIT. FOR RESIDUAL HEAT FLUX FOR A NONLINEAR PROBLEM    2.000E-02
     CRITERION FOR ZERO HEAT FLUX RELATIVE TO TIME AVRG. HEAT FLUX     1.000E-05
     CRITERION FOR RESIDUAL HEAT FLUX WHEN THERE IS ZERO FLUX          1.000E-05
     CRITERION FOR TEMP.    CORRECTION WHEN THERE IS ZERO FLUX         1.000E-03
     CRITERION FOR RESIDUAL HEAT FLUX FOR A LINEAR INCREMENT           1.000E-08
     FIELD CONVERSION RATIO                                             1.00    
     CRITERION FOR ZERO HEAT FLUX REL. TO TIME AVRG. MAX. HEAT FLUX    1.000E-05

     VOLUMETRIC STRAIN COMPATIBILITY TOLERANCE FOR HYBRID SOLIDS       1.000E-05
     AXIAL STRAIN COMPATIBILITY TOLERANCE FOR HYBRID BEAMS             1.000E-05
     TRANS. SHEAR STRAIN COMPATIBILITY TOLERANCE FOR HYBRID BEAMS      1.000E-05
     SOFT CONTACT CONSTRAINT COMPATIBILITY TOLERANCE FOR P>P0          5.000E-03
     SOFT CONTACT CONSTRAINT COMPATIBILITY TOLERANCE FOR P=0.0         0.100    
     CONTACT FORCE ERROR TOLERANCE FOR CONVERT SDI=YES                 1.00    
     DISPLACEMENT COMPATIBILITY TOLERANCE FOR DCOUP ELEMENTS           1.000E-05
     ROTATION COMPATIBILITY TOLERANCE FOR DCOUP ELEMENTS               1.000E-05

 EQUILIBRIUM WILL BE CHECKED FOR SEVERE DISCONTINUITY ITERATIONS

 TIME INCREMENTATION CONTROL PARAMETERS:
     FIRST EQUILIBRIUM ITERATION FOR CONSECUTIVE DIVERGENCE CHECK              4
     EQUILIBRIUM ITERATION AT WHICH LOG. CONVERGENCE RATE CHECK BEGINS         8
     EQUILIBRIUM ITERATION AFTER WHICH ALTERNATE RESIDUAL IS USED              9
     MAXIMUM EQUILIBRIUM ITERATIONS ALLOWED                                   16
     EQUILIBRIUM ITERATION COUNT FOR CUT-BACK IN NEXT INCREMENT               10
     MAXIMUM EQUILIB. ITERS IN TWO INCREMENTS FOR TIME INCREMENT INCREASE      4
     MAXIMUM ITERATIONS FOR SEVERE DISCONTINUITIES                            50
     MAXIMUM ATTEMPTS ALLOWED IN AN INCREMENT                                  5
     MAXIMUM DISCON. ITERS IN TWO INCREMENTS FOR TIME INCREMENT INCREASE      50
     MAXIMUM CONTACT AUGMENTATIONS FOR *SURFACE BEHAVIOR,AUGMENTED LAGRANGE   50
     CONSECUTIVE INCS MEETING TIME INTEG. TOL. FOR TIME INC. INCREASE          3
     CUT-BACK FACTOR AFTER DIVERGENCE                                 0.2500    
     CUT-BACK FACTOR FOR TOO SLOW CONVERGENCE                         0.5000    
     CUT-BACK FACTOR AFTER TOO MANY EQUILIBRIUM ITERATIONS            0.7500    
     CUT-BACK FACTOR AFTER TOO MANY SEVERE DISCONTINUITY ITERATIONS   0.2500    
     CUT-BACK FACTOR AFTER PROBLEMS IN ELEMENT ASSEMBLY               0.2500    
     INCREASE FACTOR AFTER TWO INCREMENTS THAT CONVERGE QUICKLY        1.500    
     MAX. TIME INCREMENT INCREASE FACTOR ALLOWED                       1.500    
     MAX. TIME INCREMENT INCREASE FACTOR ALLOWED (DYNAMICS)            1.250    
     MAX. TIME INCREMENT INCREASE FACTOR ALLOWED (DIFFUSION)           2.000    
     MINIMUM TIME INCREMENT RATIO FOR EXTRAPOLATION TO OCCUR          0.1000    
     CUT-BACK FACTOR WHEN TIME INTEGRATION ACCURACY TOL. EXCEEDED     0.8500    
     MAX. RATIO OF TIME INTEG. MEASURE TO TOL. FOR TIME INC. INCREASE 0.7500    
     INCREASE FACTOR FOR TIME INCREMENT WHEN POSSIBLE                 0.8000    
     MIN. TIME INC. INCREASE FACTOR IN LINEAR TRANSIENT PROBLEMS      0.9500    
     MAX. RATIO OF TIME INCREMENT TO STABILITY LIMIT                   1.000    
     FRACTION OF STABILITY LIMIT FOR NEW TIME INCREMENT               0.9500    
     TIME INCREMENT INCREASE FACTOR BEFORE A TIME POINT                1.000    
     GLOBAL STABILIZATION CONTROL IS NOT USED

          PRINT OF INCREMENT NUMBER, TIME, ETC., EVERY    1  INCREMENTS

     THE MAXIMUM NUMBER OF INCREMENTS IN THIS STEP IS                  100000

          LARGE DISPLACEMENT THEORY WILL BE USED

          UNSYMMETRIC MATRIX STORAGE AND SOLUTION WILL BE USED

     LINEAR EXTRAPOLATION WILL BE USED

     CHARACTERISTIC ELEMENT LENGTH     2.812E-04

     DETAILS REGARDING ACTUAL SOLUTION WAVEFRONT REQUESTED

     DETAILED OUTPUT OF DIAGNOSTICS TO DATABASE REQUESTED

     PRINT OF INCREMENT NUMBER, TIME, ETC., TO THE MESSAGE FILE EVERY     1  INCREMENTS

     COLLECTING MODEL CONSTRAINT INFORMATION FOR OVERCONSTRAINT CHECKS

     COLLECTING STEP CONSTRAINT INFORMATION FOR OVERCONSTRAINT CHECKS


  INCREMENT     1 STARTS. ATTEMPT NUMBER  1, TIME INCREMENT   10.0    
 
	UNSYMMETRIC NEW DIRECT SPARSE SOLVER RUNNING ON
 	1 HOST x 1 MPI RANK PER HOST x 1 THREAD PER RANK
        NUMBER OF EQUATIONS:  194265
        NUMBER OF RHS:        1
        NUMBER OF FLOPS:      3.477e+11
        SOLVER ELAPSED TIME:  8.5s

               CONVERGENCE CHECKS FOR EQUILIBRIUM ITERATION     1


 AVERAGE FORCE                      0.116       TIME AVG. FORCE       0.116    
 LARGEST SCALED RESIDUAL FORCE     -1.973E-03   AT NODE       2561   DOF  3
   INSTANCE: NDBR15-M-1                                                                      
  CORRESPONDING RESIDUAL FORCE     -1.973E-03
 LARGEST INCREMENT OF DISP.         1.800E-05   AT NODE         21   DOF  2
   INSTANCE: NDBR15-M-1                                                                      
 LARGEST CORRECTION TO DISP.        1.800E-05   AT NODE         21   DOF  2
   INSTANCE: NDBR15-M-1                                                                      
          FORCE     EQUILIBRIUM NOT ACHIEVED WITHIN TOLERANCE.

 AVERAGE HEAT FLUX                   0.00       TIME AVG. HEAT FLUX   1.000E-02
 ALL HEAT FLUX RESIDUALS ARE ZERO
 ALL TEMP.    INCREMENTS ARE ZERO
 ALL CORRECTION TO TEMP.    ARE ZERO
          THERE IS ZERO HEAT FLUX EVERYWHERE
 
	UNSYMMETRIC NEW DIRECT SPARSE SOLVER RUNNING ON
 	1 HOST x 1 MPI RANK PER HOST x 1 THREAD PER RANK
        NUMBER OF EQUATIONS:  194265
        NUMBER OF RHS:        1
        NUMBER OF FLOPS:      3.477e+11
        SOLVER ELAPSED TIME:  9.3s

               CONVERGENCE CHECKS FOR EQUILIBRIUM ITERATION     2


 AVERAGE FORCE                      0.116       TIME AVG. FORCE       0.116    
 LARGEST SCALED RESIDUAL FORCE     -3.043E-08   AT NODE        470   DOF  2
   INSTANCE: NDBR15-M-1                                                                      
  CORRESPONDING RESIDUAL FORCE     -3.043E-08
 LARGEST INCREMENT OF DISP.         1.800E-05   AT NODE         21   DOF  2
   INSTANCE: NDBR15-M-1                                                                      
 LARGEST CORRECTION TO DISP.        9.901E-11   AT NODE        332   DOF  2
   INSTANCE: NDBR15-M-1                                                                      
          THE FORCE     EQUILIBRIUM EQUATIONS HAVE CONVERGED

 AVERAGE HEAT FLUX                   0.00       TIME AVG. HEAT FLUX   1.000E-02
 ALL HEAT FLUX RESIDUALS ARE ZERO
 ALL TEMP.    INCREMENTS ARE ZERO
 ALL CORRECTION TO TEMP.    ARE ZERO
          THERE IS ZERO HEAT FLUX EVERYWHERE

 MAXIMUM NON-PRESCRIBED INCREMENT IN TEMPERATURE IS    0.00    

 ITERATION SUMMARY FOR THE INCREMENT:   2 TOTAL ITERATIONS, OF WHICH
   0 ARE SEVERE DISCONTINUITY ITERATIONS AND  2 ARE EQUILIBRIUM ITERATIONS.

 TIME INCREMENT COMPLETED   10.0    ,  FRACTION OF STEP COMPLETED  1.000E-02
 STEP TIME COMPLETED        10.0    ,  TOTAL TIME COMPLETED         10.0    


  INCREMENT     2 STARTS. ATTEMPT NUMBER  1, TIME INCREMENT   10.0    
 
	UNSYMMETRIC NEW DIRECT SPARSE SOLVER RUNNING ON
 	1 HOST x 1 MPI RANK PER HOST x 1 THREAD PER RANK
        NUMBER OF EQUATIONS:  194265
        NUMBER OF RHS:        1
        NUMBER OF FLOPS:      3.477e+11
        SOLVER ELAPSED TIME:  8.8s

               CONVERGENCE CHECKS FOR EQUILIBRIUM ITERATION     1


 AVERAGE FORCE                      0.244       TIME AVG. FORCE       0.180    
 LARGEST SCALED RESIDUAL FORCE     -6.878E-08   AT NODE       2697   DOF  2
   INSTANCE: NDBR15-M-1                                                                      
  CORRESPONDING RESIDUAL FORCE     -6.878E-08
 LARGEST INCREMENT OF DISP.         1.800E-05   AT NODE         21   DOF  2
   INSTANCE: NDBR15-M-1                                                                      
 LARGEST CORRECTION TO DISP.        1.889E-10   AT NODE        332   DOF  2
   INSTANCE: NDBR15-M-1                                                                      
          THE FORCE     EQUILIBRIUM EQUATIONS HAVE CONVERGED

 AVERAGE HEAT FLUX                   0.00       TIME AVG. HEAT FLUX   1.000E-02
 ALL HEAT FLUX RESIDUALS ARE ZERO
 ALL TEMP.    INCREMENTS ARE ZERO
 ALL CORRECTION TO TEMP.    ARE ZERO
          THERE IS ZERO HEAT FLUX EVERYWHERE

 MAXIMUM NON-PRESCRIBED INCREMENT IN TEMPERATURE IS    0.00    

 ITERATION SUMMARY FOR THE INCREMENT:   1 TOTAL ITERATIONS, OF WHICH
   0 ARE SEVERE DISCONTINUITY ITERATIONS AND  1 ARE EQUILIBRIUM ITERATIONS.

 TIME INCREMENT COMPLETED   10.0    ,  FRACTION OF STEP COMPLETED  2.000E-02
 STEP TIME COMPLETED        20.0    ,  TOTAL TIME COMPLETED         20.0    


  INCREMENT     3 STARTS. ATTEMPT NUMBER  1, TIME INCREMENT   10.0    
 
	UNSYMMETRIC NEW DIRECT SPARSE SOLVER RUNNING ON
 	1 HOST x 1 MPI RANK PER HOST x 1 THREAD PER RANK
        NUMBER OF EQUATIONS:  194265
        NUMBER OF RHS:        1
        NUMBER OF FLOPS:      3.477e+11
        SOLVER ELAPSED TIME:  9.3s

               CONVERGENCE CHECKS FOR EQUILIBRIUM ITERATION     1


 AVERAGE FORCE                      0.366       TIME AVG. FORCE       0.242    
 LARGEST SCALED RESIDUAL FORCE     -1.225E-07   AT NODE       2697   DOF  2
   INSTANCE: NDBR15-M-1                                                                      
  CORRESPONDING RESIDUAL FORCE     -1.225E-07
 LARGEST INCREMENT OF DISP.         1.800E-05   AT NODE         21   DOF  2
   INSTANCE: NDBR15-M-1                                                                      
 LARGEST CORRECTION TO DISP.        1.888E-10   AT NODE        332   DOF  2
   INSTANCE: NDBR15-M-1                                                                      
          THE FORCE     EQUILIBRIUM EQUATIONS HAVE CONVERGED

 AVERAGE HEAT FLUX                   0.00       TIME AVG. HEAT FLUX   1.000E-02
 ALL HEAT FLUX RESIDUALS ARE ZERO
 ALL TEMP.    INCREMENTS ARE ZERO
 ALL CORRECTION TO TEMP.    ARE ZERO
          THERE IS ZERO HEAT FLUX EVERYWHERE

 MAXIMUM NON-PRESCRIBED INCREMENT IN TEMPERATURE IS    0.00    

 ITERATION SUMMARY FOR THE INCREMENT:   1 TOTAL ITERATIONS, OF WHICH
   0 ARE SEVERE DISCONTINUITY ITERATIONS AND  1 ARE EQUILIBRIUM ITERATIONS.

 TIME INCREMENT COMPLETED   10.0    ,  FRACTION OF STEP COMPLETED  3.000E-02
 STEP TIME COMPLETED        30.0    ,  TOTAL TIME COMPLETED         30.0    


  INCREMENT     4 STARTS. ATTEMPT NUMBER  1, TIME INCREMENT   10.0    
 
	UNSYMMETRIC NEW DIRECT SPARSE SOLVER RUNNING ON
 	1 HOST x 1 MPI RANK PER HOST x 1 THREAD PER RANK
        NUMBER OF EQUATIONS:  194265
        NUMBER OF RHS:        1
        NUMBER OF FLOPS:      3.477e+11
        SOLVER ELAPSED TIME:  8.9s

               CONVERGENCE CHECKS FOR EQUILIBRIUM ITERATION     1


 AVERAGE FORCE                      0.488       TIME AVG. FORCE       0.304    
 LARGEST SCALED RESIDUAL FORCE     -1.763E-07   AT NODE       2697   DOF  2
   INSTANCE: NDBR15-M-1                                                                      
  CORRESPONDING RESIDUAL FORCE     -1.763E-07
 LARGEST INCREMENT OF DISP.         1.800E-05   AT NODE         21   DOF  2
   INSTANCE: NDBR15-M-1                                                                      
 LARGEST CORRECTION TO DISP.        1.888E-10   AT NODE        332   DOF  2
   INSTANCE: NDBR15-M-1                                                                      
          THE FORCE     EQUILIBRIUM EQUATIONS HAVE CONVERGED

 AVERAGE HEAT FLUX                   0.00       TIME AVG. HEAT FLUX   1.000E-02
 ALL HEAT FLUX RESIDUALS ARE ZERO
 ALL TEMP.    INCREMENTS ARE ZERO
 ALL CORRECTION TO TEMP.    ARE ZERO
          THERE IS ZERO HEAT FLUX EVERYWHERE

 MAXIMUM NON-PRESCRIBED INCREMENT IN TEMPERATURE IS    0.00    

 ITERATION SUMMARY FOR THE INCREMENT:   1 TOTAL ITERATIONS, OF WHICH
   0 ARE SEVERE DISCONTINUITY ITERATIONS AND  1 ARE EQUILIBRIUM ITERATIONS.

 TIME INCREMENT COMPLETED   10.0    ,  FRACTION OF STEP COMPLETED  4.000E-02
 STEP TIME COMPLETED        40.0    ,  TOTAL TIME COMPLETED         40.0    


  INCREMENT     5 STARTS. ATTEMPT NUMBER  1, TIME INCREMENT   10.0    
 
	UNSYMMETRIC NEW DIRECT SPARSE SOLVER RUNNING ON
 	1 HOST x 1 MPI RANK PER HOST x 1 THREAD PER RANK
        NUMBER OF EQUATIONS:  194265
        NUMBER OF RHS:        1
        NUMBER OF FLOPS:      3.477e+11
        SOLVER ELAPSED TIME:  8.7s

               CONVERGENCE CHECKS FOR EQUILIBRIUM ITERATION     1


 AVERAGE FORCE                      0.610       TIME AVG. FORCE       0.365    
 LARGEST SCALED RESIDUAL FORCE     -2.300E-07   AT NODE       2697   DOF  2
   INSTANCE: NDBR15-M-1                                                                      
  CORRESPONDING RESIDUAL FORCE     -2.300E-07
 LARGEST INCREMENT OF DISP.         1.800E-05   AT NODE         21   DOF  2
   INSTANCE: NDBR15-M-1                                                                      
 LARGEST CORRECTION TO DISP.        1.888E-10   AT NODE        332   DOF  2
   INSTANCE: NDBR15-M-1                                                                      
          THE FORCE     EQUILIBRIUM EQUATIONS HAVE CONVERGED

 AVERAGE HEAT FLUX                   0.00       TIME AVG. HEAT FLUX   1.000E-02
 ALL HEAT FLUX RESIDUALS ARE ZERO
 ALL TEMP.    INCREMENTS ARE ZERO
 ALL CORRECTION TO TEMP.    ARE ZERO
          THERE IS ZERO HEAT FLUX EVERYWHERE

 MAXIMUM NON-PRESCRIBED INCREMENT IN TEMPERATURE IS    0.00    

 ITERATION SUMMARY FOR THE INCREMENT:   1 TOTAL ITERATIONS, OF WHICH
   0 ARE SEVERE DISCONTINUITY ITERATIONS AND  1 ARE EQUILIBRIUM ITERATIONS.

 TIME INCREMENT COMPLETED   10.0    ,  FRACTION OF STEP COMPLETED  5.000E-02
 STEP TIME COMPLETED        50.0    ,  TOTAL TIME COMPLETED         50.0    


  INCREMENT     6 STARTS. ATTEMPT NUMBER  1, TIME INCREMENT   10.0    
 
	UNSYMMETRIC NEW DIRECT SPARSE SOLVER RUNNING ON
 	1 HOST x 1 MPI RANK PER HOST x 1 THREAD PER RANK
        NUMBER OF EQUATIONS:  194265
        NUMBER OF RHS:        1
        NUMBER OF FLOPS:      3.477e+11
        SOLVER ELAPSED TIME:  7.9s

               CONVERGENCE CHECKS FOR EQUILIBRIUM ITERATION     1


 AVERAGE FORCE                      0.732       TIME AVG. FORCE       0.426    
 LARGEST SCALED RESIDUAL FORCE     -2.836E-07   AT NODE       2697   DOF  2
   INSTANCE: NDBR15-M-1                                                                      
  CORRESPONDING RESIDUAL FORCE     -2.836E-07
 LARGEST INCREMENT OF DISP.         1.800E-05   AT NODE         21   DOF  2
   INSTANCE: NDBR15-M-1                                                                      
 LARGEST CORRECTION TO DISP.        1.888E-10   AT NODE        332   DOF  2
   INSTANCE: NDBR15-M-1                                                                      
          THE FORCE     EQUILIBRIUM EQUATIONS HAVE CONVERGED

 AVERAGE HEAT FLUX                   0.00       TIME AVG. HEAT FLUX   1.000E-02
 ALL HEAT FLUX RESIDUALS ARE ZERO
 ALL TEMP.    INCREMENTS ARE ZERO
 ALL CORRECTION TO TEMP.    ARE ZERO
          THERE IS ZERO HEAT FLUX EVERYWHERE

 MAXIMUM NON-PRESCRIBED INCREMENT IN TEMPERATURE IS    0.00    

 ITERATION SUMMARY FOR THE INCREMENT:   1 TOTAL ITERATIONS, OF WHICH
   0 ARE SEVERE DISCONTINUITY ITERATIONS AND  1 ARE EQUILIBRIUM ITERATIONS.

 TIME INCREMENT COMPLETED   10.0    ,  FRACTION OF STEP COMPLETED  6.000E-02
 STEP TIME COMPLETED        60.0    ,  TOTAL TIME COMPLETED         60.0    


  INCREMENT     7 STARTS. ATTEMPT NUMBER  1, TIME INCREMENT   10.0    
 
	UNSYMMETRIC NEW DIRECT SPARSE SOLVER RUNNING ON
 	1 HOST x 1 MPI RANK PER HOST x 1 THREAD PER RANK
        NUMBER OF EQUATIONS:  194265
        NUMBER OF RHS:        1
        NUMBER OF FLOPS:      3.477e+11
        SOLVER ELAPSED TIME:  7.5s

               CONVERGENCE CHECKS FOR EQUILIBRIUM ITERATION     1


 AVERAGE FORCE                      0.855       TIME AVG. FORCE       0.487    
 LARGEST SCALED RESIDUAL FORCE     -3.373E-07   AT NODE       2697   DOF  2
   INSTANCE: NDBR15-M-1                                                                      
  CORRESPONDING RESIDUAL FORCE     -3.373E-07
 LARGEST INCREMENT OF DISP.         1.800E-05   AT NODE         21   DOF  2
   INSTANCE: NDBR15-M-1                                                                      
 LARGEST CORRECTION TO DISP.        1.887E-10   AT NODE        332   DOF  2
   INSTANCE: NDBR15-M-1                                                                      
          THE FORCE     EQUILIBRIUM EQUATIONS HAVE CONVERGED

 AVERAGE HEAT FLUX                   0.00       TIME AVG. HEAT FLUX   1.000E-02
 ALL HEAT FLUX RESIDUALS ARE ZERO
 ALL TEMP.    INCREMENTS ARE ZERO
 ALL CORRECTION TO TEMP.    ARE ZERO
          THERE IS ZERO HEAT FLUX EVERYWHERE

 MAXIMUM NON-PRESCRIBED INCREMENT IN TEMPERATURE IS    0.00    

 ITERATION SUMMARY FOR THE INCREMENT:   1 TOTAL ITERATIONS, OF WHICH
   0 ARE SEVERE DISCONTINUITY ITERATIONS AND  1 ARE EQUILIBRIUM ITERATIONS.

 TIME INCREMENT COMPLETED   10.0    ,  FRACTION OF STEP COMPLETED  7.000E-02
 STEP TIME COMPLETED        70.0    ,  TOTAL TIME COMPLETED         70.0    


  INCREMENT     8 STARTS. ATTEMPT NUMBER  1, TIME INCREMENT   10.0    
 
	UNSYMMETRIC NEW DIRECT SPARSE SOLVER RUNNING ON
 	1 HOST x 1 MPI RANK PER HOST x 1 THREAD PER RANK
        NUMBER OF EQUATIONS:  194265
        NUMBER OF RHS:        1
        NUMBER OF FLOPS:      3.477e+11
        SOLVER ELAPSED TIME:  7.5s

               CONVERGENCE CHECKS FOR EQUILIBRIUM ITERATION     1


 AVERAGE FORCE                      0.977       TIME AVG. FORCE       0.549    
 LARGEST SCALED RESIDUAL FORCE     -3.909E-07   AT NODE       2699   DOF  2
   INSTANCE: NDBR15-M-1                                                                      
  CORRESPONDING RESIDUAL FORCE     -3.909E-07
 LARGEST INCREMENT OF DISP.         1.800E-05   AT NODE         21   DOF  2
   INSTANCE: NDBR15-M-1                                                                      
 LARGEST CORRECTION TO DISP.        1.887E-10   AT NODE        336   DOF  2
   INSTANCE: NDBR15-M-1                                                                      
          THE FORCE     EQUILIBRIUM EQUATIONS HAVE CONVERGED

 AVERAGE HEAT FLUX                   0.00       TIME AVG. HEAT FLUX   1.000E-02
 ALL HEAT FLUX RESIDUALS ARE ZERO
 ALL TEMP.    INCREMENTS ARE ZERO
 ALL CORRECTION TO TEMP.    ARE ZERO
          THERE IS ZERO HEAT FLUX EVERYWHERE

 MAXIMUM NON-PRESCRIBED INCREMENT IN TEMPERATURE IS    0.00    

 ITERATION SUMMARY FOR THE INCREMENT:   1 TOTAL ITERATIONS, OF WHICH
   0 ARE SEVERE DISCONTINUITY ITERATIONS AND  1 ARE EQUILIBRIUM ITERATIONS.

 TIME INCREMENT COMPLETED   10.0    ,  FRACTION OF STEP COMPLETED  8.000E-02
 STEP TIME COMPLETED        80.0    ,  TOTAL TIME COMPLETED         80.0    


  INCREMENT     9 STARTS. ATTEMPT NUMBER  1, TIME INCREMENT   10.0    
 
	UNSYMMETRIC NEW DIRECT SPARSE SOLVER RUNNING ON
 	1 HOST x 1 MPI RANK PER HOST x 1 THREAD PER RANK
        NUMBER OF EQUATIONS:  194265
        NUMBER OF RHS:        1
        NUMBER OF FLOPS:      3.477e+11
        SOLVER ELAPSED TIME:  7.5s

               CONVERGENCE CHECKS FOR EQUILIBRIUM ITERATION     1


 AVERAGE FORCE                       1.10       TIME AVG. FORCE       0.610    
 LARGEST SCALED RESIDUAL FORCE     -4.445E-07   AT NODE       2697   DOF  2
   INSTANCE: NDBR15-M-1                                                                      
  CORRESPONDING RESIDUAL FORCE     -4.445E-07
 LARGEST INCREMENT OF DISP.         1.800E-05   AT NODE         21   DOF  2
   INSTANCE: NDBR15-M-1                                                                      
 LARGEST CORRECTION TO DISP.        1.887E-10   AT NODE        332   DOF  2
   INSTANCE: NDBR15-M-1                                                                      
          THE FORCE     EQUILIBRIUM EQUATIONS HAVE CONVERGED

 AVERAGE HEAT FLUX                   0.00       TIME AVG. HEAT FLUX   1.000E-02
 ALL HEAT FLUX RESIDUALS ARE ZERO
 ALL TEMP.    INCREMENTS ARE ZERO
 ALL CORRECTION TO TEMP.    ARE ZERO
          THERE IS ZERO HEAT FLUX EVERYWHERE

 MAXIMUM NON-PRESCRIBED INCREMENT IN TEMPERATURE IS    0.00    

 ITERATION SUMMARY FOR THE INCREMENT:   1 TOTAL ITERATIONS, OF WHICH
   0 ARE SEVERE DISCONTINUITY ITERATIONS AND  1 ARE EQUILIBRIUM ITERATIONS.

 TIME INCREMENT COMPLETED   10.0    ,  FRACTION OF STEP COMPLETED  9.000E-02
 STEP TIME COMPLETED        90.0    ,  TOTAL TIME COMPLETED         90.0    


  INCREMENT    10 STARTS. ATTEMPT NUMBER  1, TIME INCREMENT   10.0    
 
	UNSYMMETRIC NEW DIRECT SPARSE SOLVER RUNNING ON
 	1 HOST x 1 MPI RANK PER HOST x 1 THREAD PER RANK
        NUMBER OF EQUATIONS:  194265
        NUMBER OF RHS:        1
        NUMBER OF FLOPS:      3.477e+11
        SOLVER ELAPSED TIME:  7.4s

               CONVERGENCE CHECKS FOR EQUILIBRIUM ITERATION     1


 AVERAGE FORCE                       1.22       TIME AVG. FORCE       0.671    
 LARGEST SCALED RESIDUAL FORCE     -4.980E-07   AT NODE       2699   DOF  2
   INSTANCE: NDBR15-M-1                                                                      
  CORRESPONDING RESIDUAL FORCE     -4.980E-07
 LARGEST INCREMENT OF DISP.         1.800E-05   AT NODE         21   DOF  2
   INSTANCE: NDBR15-M-1                                                                      
 LARGEST CORRECTION TO DISP.        1.887E-10   AT NODE        336   DOF  2
   INSTANCE: NDBR15-M-1                                                                      
          THE FORCE     EQUILIBRIUM EQUATIONS HAVE CONVERGED

 AVERAGE HEAT FLUX                   0.00       TIME AVG. HEAT FLUX   1.000E-02
 ALL HEAT FLUX RESIDUALS ARE ZERO
 ALL TEMP.    INCREMENTS ARE ZERO
 ALL CORRECTION TO TEMP.    ARE ZERO
          THERE IS ZERO HEAT FLUX EVERYWHERE

 MAXIMUM NON-PRESCRIBED INCREMENT IN TEMPERATURE IS    0.00    

 ITERATION SUMMARY FOR THE INCREMENT:   1 TOTAL ITERATIONS, OF WHICH
   0 ARE SEVERE DISCONTINUITY ITERATIONS AND  1 ARE EQUILIBRIUM ITERATIONS.

 TIME INCREMENT COMPLETED   10.0    ,  FRACTION OF STEP COMPLETED  0.100    
 STEP TIME COMPLETED        100.    ,  TOTAL TIME COMPLETED         100.    


  INCREMENT    11 STARTS. ATTEMPT NUMBER  1, TIME INCREMENT   10.0    
 
	UNSYMMETRIC NEW DIRECT SPARSE SOLVER RUNNING ON
 	1 HOST x 1 MPI RANK PER HOST x 1 THREAD PER RANK
        NUMBER OF EQUATIONS:  194265
        NUMBER OF RHS:        1
        NUMBER OF FLOPS:      3.477e+11
        SOLVER ELAPSED TIME:  7.5s

               CONVERGENCE CHECKS FOR EQUILIBRIUM ITERATION     1


 AVERAGE FORCE                       1.34       TIME AVG. FORCE       0.732    
 LARGEST SCALED RESIDUAL FORCE     -5.515E-07   AT NODE       2697   DOF  2
   INSTANCE: NDBR15-M-1                                                                      
  CORRESPONDING RESIDUAL FORCE     -5.515E-07
 LARGEST INCREMENT OF DISP.         1.800E-05   AT NODE         21   DOF  2
   INSTANCE: NDBR15-M-1                                                                      
 LARGEST CORRECTION TO DISP.        1.887E-10   AT NODE        336   DOF  2
   INSTANCE: NDBR15-M-1                                                                      
          THE FORCE     EQUILIBRIUM EQUATIONS HAVE CONVERGED

 AVERAGE HEAT FLUX                   0.00       TIME AVG. HEAT FLUX   1.000E-02
 ALL HEAT FLUX RESIDUALS ARE ZERO
 ALL TEMP.    INCREMENTS ARE ZERO
 ALL CORRECTION TO TEMP.    ARE ZERO
          THERE IS ZERO HEAT FLUX EVERYWHERE

 MAXIMUM NON-PRESCRIBED INCREMENT IN TEMPERATURE IS    0.00    

 ITERATION SUMMARY FOR THE INCREMENT:   1 TOTAL ITERATIONS, OF WHICH
   0 ARE SEVERE DISCONTINUITY ITERATIONS AND  1 ARE EQUILIBRIUM ITERATIONS.

 TIME INCREMENT COMPLETED   10.0    ,  FRACTION OF STEP COMPLETED  0.110    
 STEP TIME COMPLETED        110.    ,  TOTAL TIME COMPLETED         110.    


  INCREMENT    12 STARTS. ATTEMPT NUMBER  1, TIME INCREMENT   10.0    
 
	UNSYMMETRIC NEW DIRECT SPARSE SOLVER RUNNING ON
 	1 HOST x 1 MPI RANK PER HOST x 1 THREAD PER RANK
        NUMBER OF EQUATIONS:  194265
        NUMBER OF RHS:        1
        NUMBER OF FLOPS:      3.477e+11
        SOLVER ELAPSED TIME:  7.5s

               CONVERGENCE CHECKS FOR EQUILIBRIUM ITERATION     1


 AVERAGE FORCE                       1.46       TIME AVG. FORCE       0.793    
 LARGEST SCALED RESIDUAL FORCE     -6.050E-07   AT NODE       2699   DOF  2
   INSTANCE: NDBR15-M-1                                                                      
  CORRESPONDING RESIDUAL FORCE     -6.050E-07
 LARGEST INCREMENT OF DISP.         1.800E-05   AT NODE         21   DOF  2
   INSTANCE: NDBR15-M-1                                                                      
 LARGEST CORRECTION TO DISP.        1.886E-10   AT NODE        336   DOF  2
   INSTANCE: NDBR15-M-1                                                                      
          THE FORCE     EQUILIBRIUM EQUATIONS HAVE CONVERGED

 AVERAGE HEAT FLUX                   0.00       TIME AVG. HEAT FLUX   1.000E-02
 ALL HEAT FLUX RESIDUALS ARE ZERO
 ALL TEMP.    INCREMENTS ARE ZERO
 ALL CORRECTION TO TEMP.    ARE ZERO
          THERE IS ZERO HEAT FLUX EVERYWHERE

 MAXIMUM NON-PRESCRIBED INCREMENT IN TEMPERATURE IS    0.00    

 ITERATION SUMMARY FOR THE INCREMENT:   1 TOTAL ITERATIONS, OF WHICH
   0 ARE SEVERE DISCONTINUITY ITERATIONS AND  1 ARE EQUILIBRIUM ITERATIONS.

 TIME INCREMENT COMPLETED   10.0    ,  FRACTION OF STEP COMPLETED  0.120    
 STEP TIME COMPLETED        120.    ,  TOTAL TIME COMPLETED         120.    


  INCREMENT    13 STARTS. ATTEMPT NUMBER  1, TIME INCREMENT   10.0    
 
	UNSYMMETRIC NEW DIRECT SPARSE SOLVER RUNNING ON
 	1 HOST x 1 MPI RANK PER HOST x 1 THREAD PER RANK
        NUMBER OF EQUATIONS:  194265
        NUMBER OF RHS:        1
        NUMBER OF FLOPS:      3.477e+11
        SOLVER ELAPSED TIME:  7.4s

               CONVERGENCE CHECKS FOR EQUILIBRIUM ITERATION     1


 AVERAGE FORCE                       1.59       TIME AVG. FORCE       0.854    
 LARGEST SCALED RESIDUAL FORCE     -6.585E-07   AT NODE       2699   DOF  2
   INSTANCE: NDBR15-M-1                                                                      
  CORRESPONDING RESIDUAL FORCE     -6.585E-07
 LARGEST INCREMENT OF DISP.         1.800E-05   AT NODE         21   DOF  2
   INSTANCE: NDBR15-M-1                                                                      
 LARGEST CORRECTION TO DISP.        1.886E-10   AT NODE        336   DOF  2
   INSTANCE: NDBR15-M-1                                                                      
          THE FORCE     EQUILIBRIUM EQUATIONS HAVE CONVERGED

 AVERAGE HEAT FLUX                   0.00       TIME AVG. HEAT FLUX   1.000E-02
 ALL HEAT FLUX RESIDUALS ARE ZERO
 ALL TEMP.    INCREMENTS ARE ZERO
 ALL CORRECTION TO TEMP.    ARE ZERO
          THERE IS ZERO HEAT FLUX EVERYWHERE

 MAXIMUM NON-PRESCRIBED INCREMENT IN TEMPERATURE IS    0.00    

 ITERATION SUMMARY FOR THE INCREMENT:   1 TOTAL ITERATIONS, OF WHICH
   0 ARE SEVERE DISCONTINUITY ITERATIONS AND  1 ARE EQUILIBRIUM ITERATIONS.

 TIME INCREMENT COMPLETED   10.0    ,  FRACTION OF STEP COMPLETED  0.130    
 STEP TIME COMPLETED        130.    ,  TOTAL TIME COMPLETED         130.    


  INCREMENT    14 STARTS. ATTEMPT NUMBER  1, TIME INCREMENT   10.0    
 
	UNSYMMETRIC NEW DIRECT SPARSE SOLVER RUNNING ON
 	1 HOST x 1 MPI RANK PER HOST x 1 THREAD PER RANK
        NUMBER OF EQUATIONS:  194265
        NUMBER OF RHS:        1
        NUMBER OF FLOPS:      3.477e+11
        SOLVER ELAPSED TIME:  7.7s

               CONVERGENCE CHECKS FOR EQUILIBRIUM ITERATION     1


 AVERAGE FORCE                       1.71       TIME AVG. FORCE       0.915    
 LARGEST SCALED RESIDUAL FORCE     -7.119E-07   AT NODE       2699   DOF  2
   INSTANCE: NDBR15-M-1                                                                      
  CORRESPONDING RESIDUAL FORCE     -7.119E-07
 LARGEST INCREMENT OF DISP.         1.800E-05   AT NODE         21   DOF  2
   INSTANCE: NDBR15-M-1                                                                      
 LARGEST CORRECTION TO DISP.        1.886E-10   AT NODE        336   DOF  2
   INSTANCE: NDBR15-M-1                                                                      
          THE FORCE     EQUILIBRIUM EQUATIONS HAVE CONVERGED

 AVERAGE HEAT FLUX                   0.00       TIME AVG. HEAT FLUX   1.000E-02
 ALL HEAT FLUX RESIDUALS ARE ZERO
 ALL TEMP.    INCREMENTS ARE ZERO
 ALL CORRECTION TO TEMP.    ARE ZERO
          THERE IS ZERO HEAT FLUX EVERYWHERE

 MAXIMUM NON-PRESCRIBED INCREMENT IN TEMPERATURE IS    0.00    

 ITERATION SUMMARY FOR THE INCREMENT:   1 TOTAL ITERATIONS, OF WHICH
   0 ARE SEVERE DISCONTINUITY ITERATIONS AND  1 ARE EQUILIBRIUM ITERATIONS.

 TIME INCREMENT COMPLETED   10.0    ,  FRACTION OF STEP COMPLETED  0.140    
 STEP TIME COMPLETED        140.    ,  TOTAL TIME COMPLETED         140.    


  INCREMENT    15 STARTS. ATTEMPT NUMBER  1, TIME INCREMENT   10.0    
 
	UNSYMMETRIC NEW DIRECT SPARSE SOLVER RUNNING ON
 	1 HOST x 1 MPI RANK PER HOST x 1 THREAD PER RANK
        NUMBER OF EQUATIONS:  194265
        NUMBER OF RHS:        1
        NUMBER OF FLOPS:      3.477e+11
        SOLVER ELAPSED TIME:  7.3s

               CONVERGENCE CHECKS FOR EQUILIBRIUM ITERATION     1


 AVERAGE FORCE                       1.83       TIME AVG. FORCE       0.976    
 LARGEST SCALED RESIDUAL FORCE     -7.653E-07   AT NODE       2699   DOF  2
   INSTANCE: NDBR15-M-1                                                                      
  CORRESPONDING RESIDUAL FORCE     -7.653E-07
 LARGEST INCREMENT OF DISP.         1.800E-05   AT NODE         21   DOF  2
   INSTANCE: NDBR15-M-1                                                                      
 LARGEST CORRECTION TO DISP.        1.886E-10   AT NODE        336   DOF  2
   INSTANCE: NDBR15-M-1                                                                      
          THE FORCE     EQUILIBRIUM EQUATIONS HAVE CONVERGED

 AVERAGE HEAT FLUX                   0.00       TIME AVG. HEAT FLUX   1.000E-02
 ALL HEAT FLUX RESIDUALS ARE ZERO
 ALL TEMP.    INCREMENTS ARE ZERO
 ALL CORRECTION TO TEMP.    ARE ZERO
          THERE IS ZERO HEAT FLUX EVERYWHERE

 MAXIMUM NON-PRESCRIBED INCREMENT IN TEMPERATURE IS    0.00    

 ITERATION SUMMARY FOR THE INCREMENT:   1 TOTAL ITERATIONS, OF WHICH
   0 ARE SEVERE DISCONTINUITY ITERATIONS AND  1 ARE EQUILIBRIUM ITERATIONS.

 TIME INCREMENT COMPLETED   10.0    ,  FRACTION OF STEP COMPLETED  0.150    
 STEP TIME COMPLETED        150.    ,  TOTAL TIME COMPLETED         150.    


  INCREMENT    16 STARTS. ATTEMPT NUMBER  1, TIME INCREMENT   10.0    
 
	UNSYMMETRIC NEW DIRECT SPARSE SOLVER RUNNING ON
 	1 HOST x 1 MPI RANK PER HOST x 1 THREAD PER RANK
        NUMBER OF EQUATIONS:  194265
        NUMBER OF RHS:        1
        NUMBER OF FLOPS:      3.477e+11
        SOLVER ELAPSED TIME:  7.4s

               CONVERGENCE CHECKS FOR EQUILIBRIUM ITERATION     1


 AVERAGE FORCE                       1.95       TIME AVG. FORCE        1.04    
 LARGEST SCALED RESIDUAL FORCE     -8.187E-07   AT NODE       2699   DOF  2
   INSTANCE: NDBR15-M-1                                                                      
  CORRESPONDING RESIDUAL FORCE     -8.187E-07
 LARGEST INCREMENT OF DISP.         1.800E-05   AT NODE         21   DOF  2
   INSTANCE: NDBR15-M-1                                                                      
 LARGEST CORRECTION TO DISP.        1.885E-10   AT NODE        336   DOF  2
   INSTANCE: NDBR15-M-1                                                                      
          THE FORCE     EQUILIBRIUM EQUATIONS HAVE CONVERGED

 AVERAGE HEAT FLUX                   0.00       TIME AVG. HEAT FLUX   1.000E-02
 ALL HEAT FLUX RESIDUALS ARE ZERO
 ALL TEMP.    INCREMENTS ARE ZERO
 ALL CORRECTION TO TEMP.    ARE ZERO
          THERE IS ZERO HEAT FLUX EVERYWHERE

 MAXIMUM NON-PRESCRIBED INCREMENT IN TEMPERATURE IS    0.00    

 ITERATION SUMMARY FOR THE INCREMENT:   1 TOTAL ITERATIONS, OF WHICH
   0 ARE SEVERE DISCONTINUITY ITERATIONS AND  1 ARE EQUILIBRIUM ITERATIONS.

 TIME INCREMENT COMPLETED   10.0    ,  FRACTION OF STEP COMPLETED  0.160    
 STEP TIME COMPLETED        160.    ,  TOTAL TIME COMPLETED         160.    


  INCREMENT    17 STARTS. ATTEMPT NUMBER  1, TIME INCREMENT   10.0    
 
	UNSYMMETRIC NEW DIRECT SPARSE SOLVER RUNNING ON
 	1 HOST x 1 MPI RANK PER HOST x 1 THREAD PER RANK
        NUMBER OF EQUATIONS:  194265
        NUMBER OF RHS:        1
        NUMBER OF FLOPS:      3.477e+11
        SOLVER ELAPSED TIME:  7.3s

               CONVERGENCE CHECKS FOR EQUILIBRIUM ITERATION     1


 AVERAGE FORCE                       2.07       TIME AVG. FORCE        1.10    
 LARGEST SCALED RESIDUAL FORCE     -8.721E-07   AT NODE       2699   DOF  2
   INSTANCE: NDBR15-M-1                                                                      
  CORRESPONDING RESIDUAL FORCE     -8.721E-07
 LARGEST INCREMENT OF DISP.         1.800E-05   AT NODE         21   DOF  2
   INSTANCE: NDBR15-M-1                                                                      
 LARGEST CORRECTION TO DISP.        1.885E-10   AT NODE        336   DOF  2
   INSTANCE: NDBR15-M-1                                                                      
          THE FORCE     EQUILIBRIUM EQUATIONS HAVE CONVERGED

 AVERAGE HEAT FLUX                   0.00       TIME AVG. HEAT FLUX   1.000E-02
 ALL HEAT FLUX RESIDUALS ARE ZERO
 ALL TEMP.    INCREMENTS ARE ZERO
 ALL CORRECTION TO TEMP.    ARE ZERO
          THERE IS ZERO HEAT FLUX EVERYWHERE

 MAXIMUM NON-PRESCRIBED INCREMENT IN TEMPERATURE IS    0.00    

 ITERATION SUMMARY FOR THE INCREMENT:   1 TOTAL ITERATIONS, OF WHICH
   0 ARE SEVERE DISCONTINUITY ITERATIONS AND  1 ARE EQUILIBRIUM ITERATIONS.

 TIME INCREMENT COMPLETED   10.0    ,  FRACTION OF STEP COMPLETED  0.170    
 STEP TIME COMPLETED        170.    ,  TOTAL TIME COMPLETED         170.    


  INCREMENT    18 STARTS. ATTEMPT NUMBER  1, TIME INCREMENT   10.0    
 
	UNSYMMETRIC NEW DIRECT SPARSE SOLVER RUNNING ON
 	1 HOST x 1 MPI RANK PER HOST x 1 THREAD PER RANK
        NUMBER OF EQUATIONS:  194265
        NUMBER OF RHS:        1
        NUMBER OF FLOPS:      3.477e+11
        SOLVER ELAPSED TIME:  7.4s

               CONVERGENCE CHECKS FOR EQUILIBRIUM ITERATION     1


 AVERAGE FORCE                       2.20       TIME AVG. FORCE        1.16    
 LARGEST SCALED RESIDUAL FORCE     -9.254E-07   AT NODE       2699   DOF  2
   INSTANCE: NDBR15-M-1                                                                      
  CORRESPONDING RESIDUAL FORCE     -9.254E-07
 LARGEST INCREMENT OF DISP.         1.800E-05   AT NODE         21   DOF  2
   INSTANCE: NDBR15-M-1                                                                      
 LARGEST CORRECTION TO DISP.        1.885E-10   AT NODE        336   DOF  2
   INSTANCE: NDBR15-M-1                                                                      
          THE FORCE     EQUILIBRIUM EQUATIONS HAVE CONVERGED

 AVERAGE HEAT FLUX                   0.00       TIME AVG. HEAT FLUX   1.000E-02
 ALL HEAT FLUX RESIDUALS ARE ZERO
 ALL TEMP.    INCREMENTS ARE ZERO
 ALL CORRECTION TO TEMP.    ARE ZERO
          THERE IS ZERO HEAT FLUX EVERYWHERE

 MAXIMUM NON-PRESCRIBED INCREMENT IN TEMPERATURE IS    0.00    

 ITERATION SUMMARY FOR THE INCREMENT:   1 TOTAL ITERATIONS, OF WHICH
   0 ARE SEVERE DISCONTINUITY ITERATIONS AND  1 ARE EQUILIBRIUM ITERATIONS.

 TIME INCREMENT COMPLETED   10.0    ,  FRACTION OF STEP COMPLETED  0.180    
 STEP TIME COMPLETED        180.    ,  TOTAL TIME COMPLETED         180.    


  INCREMENT    19 STARTS. ATTEMPT NUMBER  1, TIME INCREMENT   10.0    
 
	UNSYMMETRIC NEW DIRECT SPARSE SOLVER RUNNING ON
 	1 HOST x 1 MPI RANK PER HOST x 1 THREAD PER RANK
        NUMBER OF EQUATIONS:  194265
        NUMBER OF RHS:        1
        NUMBER OF FLOPS:      3.477e+11
        SOLVER ELAPSED TIME:  7.5s

               CONVERGENCE CHECKS FOR EQUILIBRIUM ITERATION     1


 AVERAGE FORCE                       2.32       TIME AVG. FORCE        1.22    
 LARGEST SCALED RESIDUAL FORCE     -9.787E-07   AT NODE       2699   DOF  2
   INSTANCE: NDBR15-M-1                                                                      
  CORRESPONDING RESIDUAL FORCE     -9.787E-07
 LARGEST INCREMENT OF DISP.         1.800E-05   AT NODE         21   DOF  2
   INSTANCE: NDBR15-M-1                                                                      
 LARGEST CORRECTION TO DISP.        1.885E-10   AT NODE        336   DOF  2
   INSTANCE: NDBR15-M-1                                                                      
          THE FORCE     EQUILIBRIUM EQUATIONS HAVE CONVERGED

 AVERAGE HEAT FLUX                   0.00       TIME AVG. HEAT FLUX   1.000E-02
 ALL HEAT FLUX RESIDUALS ARE ZERO
 ALL TEMP.    INCREMENTS ARE ZERO
 ALL CORRECTION TO TEMP.    ARE ZERO
          THERE IS ZERO HEAT FLUX EVERYWHERE

 MAXIMUM NON-PRESCRIBED INCREMENT IN TEMPERATURE IS    0.00    

 ITERATION SUMMARY FOR THE INCREMENT:   1 TOTAL ITERATIONS, OF WHICH
   0 ARE SEVERE DISCONTINUITY ITERATIONS AND  1 ARE EQUILIBRIUM ITERATIONS.

 TIME INCREMENT COMPLETED   10.0    ,  FRACTION OF STEP COMPLETED  0.190    
 STEP TIME COMPLETED        190.    ,  TOTAL TIME COMPLETED         190.    


  INCREMENT    20 STARTS. ATTEMPT NUMBER  1, TIME INCREMENT   10.0    
 
	UNSYMMETRIC NEW DIRECT SPARSE SOLVER RUNNING ON
 	1 HOST x 1 MPI RANK PER HOST x 1 THREAD PER RANK
        NUMBER OF EQUATIONS:  194265
        NUMBER OF RHS:        1
        NUMBER OF FLOPS:      3.477e+11
        SOLVER ELAPSED TIME:  7.3s

               CONVERGENCE CHECKS FOR EQUILIBRIUM ITERATION     1


 AVERAGE FORCE                       2.44       TIME AVG. FORCE        1.28    
 LARGEST SCALED RESIDUAL FORCE     -1.032E-06   AT NODE       2697   DOF  2
   INSTANCE: NDBR15-M-1                                                                      
  CORRESPONDING RESIDUAL FORCE     -1.032E-06
 LARGEST INCREMENT OF DISP.         1.800E-05   AT NODE         21   DOF  2
   INSTANCE: NDBR15-M-1                                                                      
 LARGEST CORRECTION TO DISP.        1.885E-10   AT NODE        336   DOF  2
   INSTANCE: NDBR15-M-1                                                                      
          THE FORCE     EQUILIBRIUM EQUATIONS HAVE CONVERGED

 AVERAGE HEAT FLUX                   0.00       TIME AVG. HEAT FLUX   1.000E-02
 ALL HEAT FLUX RESIDUALS ARE ZERO
 ALL TEMP.    INCREMENTS ARE ZERO
 ALL CORRECTION TO TEMP.    ARE ZERO
          THERE IS ZERO HEAT FLUX EVERYWHERE

 MAXIMUM NON-PRESCRIBED INCREMENT IN TEMPERATURE IS    0.00    

 ITERATION SUMMARY FOR THE INCREMENT:   1 TOTAL ITERATIONS, OF WHICH
   0 ARE SEVERE DISCONTINUITY ITERATIONS AND  1 ARE EQUILIBRIUM ITERATIONS.

 TIME INCREMENT COMPLETED   10.0    ,  FRACTION OF STEP COMPLETED  0.200    
 STEP TIME COMPLETED        200.    ,  TOTAL TIME COMPLETED         200.    


  INCREMENT    21 STARTS. ATTEMPT NUMBER  1, TIME INCREMENT   10.0    
 
	UNSYMMETRIC NEW DIRECT SPARSE SOLVER RUNNING ON
 	1 HOST x 1 MPI RANK PER HOST x 1 THREAD PER RANK
        NUMBER OF EQUATIONS:  194265
        NUMBER OF RHS:        1
        NUMBER OF FLOPS:      3.477e+11
        SOLVER ELAPSED TIME:  7.4s

               CONVERGENCE CHECKS FOR EQUILIBRIUM ITERATION     1


 AVERAGE FORCE                       2.56       TIME AVG. FORCE        1.34    
 LARGEST SCALED RESIDUAL FORCE     -1.085E-06   AT NODE       2699   DOF  2
   INSTANCE: NDBR15-M-1                                                                      
  CORRESPONDING RESIDUAL FORCE     -1.085E-06
 LARGEST INCREMENT OF DISP.         1.800E-05   AT NODE         21   DOF  2
   INSTANCE: NDBR15-M-1                                                                      
 LARGEST CORRECTION TO DISP.        1.884E-10   AT NODE        336   DOF  2
   INSTANCE: NDBR15-M-1                                                                      
          THE FORCE     EQUILIBRIUM EQUATIONS HAVE CONVERGED

 AVERAGE HEAT FLUX                   0.00       TIME AVG. HEAT FLUX   1.000E-02
 ALL HEAT FLUX RESIDUALS ARE ZERO
 ALL TEMP.    INCREMENTS ARE ZERO
 ALL CORRECTION TO TEMP.    ARE ZERO
          THERE IS ZERO HEAT FLUX EVERYWHERE

 MAXIMUM NON-PRESCRIBED INCREMENT IN TEMPERATURE IS    0.00    

 ITERATION SUMMARY FOR THE INCREMENT:   1 TOTAL ITERATIONS, OF WHICH
   0 ARE SEVERE DISCONTINUITY ITERATIONS AND  1 ARE EQUILIBRIUM ITERATIONS.

 TIME INCREMENT COMPLETED   10.0    ,  FRACTION OF STEP COMPLETED  0.210    
 STEP TIME COMPLETED        210.    ,  TOTAL TIME COMPLETED         210.    


  INCREMENT    22 STARTS. ATTEMPT NUMBER  1, TIME INCREMENT   10.0    
 
	UNSYMMETRIC NEW DIRECT SPARSE SOLVER RUNNING ON
 	1 HOST x 1 MPI RANK PER HOST x 1 THREAD PER RANK
        NUMBER OF EQUATIONS:  194265
        NUMBER OF RHS:        1
        NUMBER OF FLOPS:      3.477e+11
        SOLVER ELAPSED TIME:  7.3s

               CONVERGENCE CHECKS FOR EQUILIBRIUM ITERATION     1


 AVERAGE FORCE                       2.68       TIME AVG. FORCE        1.40    
 LARGEST SCALED RESIDUAL FORCE     -1.138E-06   AT NODE       2697   DOF  2
   INSTANCE: NDBR15-M-1                                                                      
  CORRESPONDING RESIDUAL FORCE     -1.138E-06
 LARGEST INCREMENT OF DISP.         1.800E-05   AT NODE         21   DOF  2
   INSTANCE: NDBR15-M-1                                                                      
 LARGEST CORRECTION TO DISP.        1.884E-10   AT NODE        336   DOF  2
   INSTANCE: NDBR15-M-1                                                                      
          THE FORCE     EQUILIBRIUM EQUATIONS HAVE CONVERGED

 AVERAGE HEAT FLUX                   0.00       TIME AVG. HEAT FLUX   1.000E-02
 ALL HEAT FLUX RESIDUALS ARE ZERO
 ALL TEMP.    INCREMENTS ARE ZERO
 ALL CORRECTION TO TEMP.    ARE ZERO
          THERE IS ZERO HEAT FLUX EVERYWHERE

 MAXIMUM NON-PRESCRIBED INCREMENT IN TEMPERATURE IS    0.00    

 ITERATION SUMMARY FOR THE INCREMENT:   1 TOTAL ITERATIONS, OF WHICH
   0 ARE SEVERE DISCONTINUITY ITERATIONS AND  1 ARE EQUILIBRIUM ITERATIONS.

 TIME INCREMENT COMPLETED   10.0    ,  FRACTION OF STEP COMPLETED  0.220    
 STEP TIME COMPLETED        220.    ,  TOTAL TIME COMPLETED         220.    


  INCREMENT    23 STARTS. ATTEMPT NUMBER  1, TIME INCREMENT   10.0    
 
	UNSYMMETRIC NEW DIRECT SPARSE SOLVER RUNNING ON
 	1 HOST x 1 MPI RANK PER HOST x 1 THREAD PER RANK
        NUMBER OF EQUATIONS:  194265
        NUMBER OF RHS:        1
        NUMBER OF FLOPS:      3.477e+11
        SOLVER ELAPSED TIME:  7.4s

               CONVERGENCE CHECKS FOR EQUILIBRIUM ITERATION     1


 AVERAGE FORCE                       2.80       TIME AVG. FORCE        1.46    
 LARGEST SCALED RESIDUAL FORCE     -1.192E-06   AT NODE       2699   DOF  2
   INSTANCE: NDBR15-M-1                                                                      
  CORRESPONDING RESIDUAL FORCE     -1.192E-06
 LARGEST INCREMENT OF DISP.         1.800E-05   AT NODE         21   DOF  2
   INSTANCE: NDBR15-M-1                                                                      
 LARGEST CORRECTION TO DISP.        1.884E-10   AT NODE        336   DOF  2
   INSTANCE: NDBR15-M-1                                                                      
          THE FORCE     EQUILIBRIUM EQUATIONS HAVE CONVERGED

 AVERAGE HEAT FLUX                   0.00       TIME AVG. HEAT FLUX   1.000E-02
 ALL HEAT FLUX RESIDUALS ARE ZERO
 ALL TEMP.    INCREMENTS ARE ZERO
 ALL CORRECTION TO TEMP.    ARE ZERO
          THERE IS ZERO HEAT FLUX EVERYWHERE

 MAXIMUM NON-PRESCRIBED INCREMENT IN TEMPERATURE IS    0.00    

 ITERATION SUMMARY FOR THE INCREMENT:   1 TOTAL ITERATIONS, OF WHICH
   0 ARE SEVERE DISCONTINUITY ITERATIONS AND  1 ARE EQUILIBRIUM ITERATIONS.

 TIME INCREMENT COMPLETED   10.0    ,  FRACTION OF STEP COMPLETED  0.230    
 STEP TIME COMPLETED        230.    ,  TOTAL TIME COMPLETED         230.    


  INCREMENT    24 STARTS. ATTEMPT NUMBER  1, TIME INCREMENT   10.0    
 
	UNSYMMETRIC NEW DIRECT SPARSE SOLVER RUNNING ON
 	1 HOST x 1 MPI RANK PER HOST x 1 THREAD PER RANK
        NUMBER OF EQUATIONS:  194265
        NUMBER OF RHS:        1
        NUMBER OF FLOPS:      3.477e+11
        SOLVER ELAPSED TIME:  7.4s

               CONVERGENCE CHECKS FOR EQUILIBRIUM ITERATION     1


 AVERAGE FORCE                       2.93       TIME AVG. FORCE        1.52    
 LARGEST SCALED RESIDUAL FORCE     -1.245E-06   AT NODE       2699   DOF  2
   INSTANCE: NDBR15-M-1                                                                      
  CORRESPONDING RESIDUAL FORCE     -1.245E-06
 LARGEST INCREMENT OF DISP.         1.800E-05   AT NODE         21   DOF  2
   INSTANCE: NDBR15-M-1                                                                      
 LARGEST CORRECTION TO DISP.        1.884E-10   AT NODE        336   DOF  2
   INSTANCE: NDBR15-M-1                                                                      
          THE FORCE     EQUILIBRIUM EQUATIONS HAVE CONVERGED

 AVERAGE HEAT FLUX                   0.00       TIME AVG. HEAT FLUX   1.000E-02
 ALL HEAT FLUX RESIDUALS ARE ZERO
 ALL TEMP.    INCREMENTS ARE ZERO
 ALL CORRECTION TO TEMP.    ARE ZERO
          THERE IS ZERO HEAT FLUX EVERYWHERE

 MAXIMUM NON-PRESCRIBED INCREMENT IN TEMPERATURE IS    0.00    

 ITERATION SUMMARY FOR THE INCREMENT:   1 TOTAL ITERATIONS, OF WHICH
   0 ARE SEVERE DISCONTINUITY ITERATIONS AND  1 ARE EQUILIBRIUM ITERATIONS.

 TIME INCREMENT COMPLETED   10.0    ,  FRACTION OF STEP COMPLETED  0.240    
 STEP TIME COMPLETED        240.    ,  TOTAL TIME COMPLETED         240.    


  INCREMENT    25 STARTS. ATTEMPT NUMBER  1, TIME INCREMENT   10.0    
 
	UNSYMMETRIC NEW DIRECT SPARSE SOLVER RUNNING ON
 	1 HOST x 1 MPI RANK PER HOST x 1 THREAD PER RANK
        NUMBER OF EQUATIONS:  194265
        NUMBER OF RHS:        1
        NUMBER OF FLOPS:      3.477e+11
        SOLVER ELAPSED TIME:  7.3s

               CONVERGENCE CHECKS FOR EQUILIBRIUM ITERATION     1


 AVERAGE FORCE                       3.05       TIME AVG. FORCE        1.59    
 LARGEST SCALED RESIDUAL FORCE     -1.298E-06   AT NODE       2699   DOF  2
   INSTANCE: NDBR15-M-1                                                                      
  CORRESPONDING RESIDUAL FORCE     -1.298E-06
 LARGEST INCREMENT OF DISP.         1.800E-05   AT NODE         21   DOF  2
   INSTANCE: NDBR15-M-1                                                                      
 LARGEST CORRECTION TO DISP.        1.884E-10   AT NODE        336   DOF  2
   INSTANCE: NDBR15-M-1                                                                      
          THE FORCE     EQUILIBRIUM EQUATIONS HAVE CONVERGED

 AVERAGE HEAT FLUX                   0.00       TIME AVG. HEAT FLUX   1.000E-02
 ALL HEAT FLUX RESIDUALS ARE ZERO
 ALL TEMP.    INCREMENTS ARE ZERO
 ALL CORRECTION TO TEMP.    ARE ZERO
          THERE IS ZERO HEAT FLUX EVERYWHERE

 MAXIMUM NON-PRESCRIBED INCREMENT IN TEMPERATURE IS    0.00    

 ITERATION SUMMARY FOR THE INCREMENT:   1 TOTAL ITERATIONS, OF WHICH
   0 ARE SEVERE DISCONTINUITY ITERATIONS AND  1 ARE EQUILIBRIUM ITERATIONS.

 TIME INCREMENT COMPLETED   10.0    ,  FRACTION OF STEP COMPLETED  0.250    
 STEP TIME COMPLETED        250.    ,  TOTAL TIME COMPLETED         250.    


  INCREMENT    26 STARTS. ATTEMPT NUMBER  1, TIME INCREMENT   10.0    
 
	UNSYMMETRIC NEW DIRECT SPARSE SOLVER RUNNING ON
 	1 HOST x 1 MPI RANK PER HOST x 1 THREAD PER RANK
        NUMBER OF EQUATIONS:  194265
        NUMBER OF RHS:        1
        NUMBER OF FLOPS:      3.477e+11
        SOLVER ELAPSED TIME:  7.3s

               CONVERGENCE CHECKS FOR EQUILIBRIUM ITERATION     1


 AVERAGE FORCE                       3.17       TIME AVG. FORCE        1.65    
 LARGEST SCALED RESIDUAL FORCE     -1.351E-06   AT NODE       2699   DOF  2
   INSTANCE: NDBR15-M-1                                                                      
  CORRESPONDING RESIDUAL FORCE     -1.351E-06
 LARGEST INCREMENT OF DISP.         1.800E-05   AT NODE         21   DOF  2
   INSTANCE: NDBR15-M-1                                                                      
 LARGEST CORRECTION TO DISP.        1.883E-10   AT NODE        336   DOF  2
   INSTANCE: NDBR15-M-1                                                                      
          THE FORCE     EQUILIBRIUM EQUATIONS HAVE CONVERGED

 AVERAGE HEAT FLUX                   0.00       TIME AVG. HEAT FLUX   1.000E-02
 ALL HEAT FLUX RESIDUALS ARE ZERO
 ALL TEMP.    INCREMENTS ARE ZERO
 ALL CORRECTION TO TEMP.    ARE ZERO
          THERE IS ZERO HEAT FLUX EVERYWHERE

 MAXIMUM NON-PRESCRIBED INCREMENT IN TEMPERATURE IS    0.00    

 ITERATION SUMMARY FOR THE INCREMENT:   1 TOTAL ITERATIONS, OF WHICH
   0 ARE SEVERE DISCONTINUITY ITERATIONS AND  1 ARE EQUILIBRIUM ITERATIONS.

 TIME INCREMENT COMPLETED   10.0    ,  FRACTION OF STEP COMPLETED  0.260    
 STEP TIME COMPLETED        260.    ,  TOTAL TIME COMPLETED         260.    


  INCREMENT    27 STARTS. ATTEMPT NUMBER  1, TIME INCREMENT   10.0    
 
	UNSYMMETRIC NEW DIRECT SPARSE SOLVER RUNNING ON
 	1 HOST x 1 MPI RANK PER HOST x 1 THREAD PER RANK
        NUMBER OF EQUATIONS:  194265
        NUMBER OF RHS:        1
        NUMBER OF FLOPS:      3.477e+11
        SOLVER ELAPSED TIME:  7.4s

               CONVERGENCE CHECKS FOR EQUILIBRIUM ITERATION     1


 AVERAGE FORCE                       3.29       TIME AVG. FORCE        1.71    
 LARGEST SCALED RESIDUAL FORCE     -1.404E-06   AT NODE       2699   DOF  2
   INSTANCE: NDBR15-M-1                                                                      
  CORRESPONDING RESIDUAL FORCE     -1.404E-06
 LARGEST INCREMENT OF DISP.         1.800E-05   AT NODE         21   DOF  2
   INSTANCE: NDBR15-M-1                                                                      
 LARGEST CORRECTION TO DISP.        1.883E-10   AT NODE        336   DOF  2
   INSTANCE: NDBR15-M-1                                                                      
          THE FORCE     EQUILIBRIUM EQUATIONS HAVE CONVERGED

 AVERAGE HEAT FLUX                   0.00       TIME AVG. HEAT FLUX   1.000E-02
 ALL HEAT FLUX RESIDUALS ARE ZERO
 ALL TEMP.    INCREMENTS ARE ZERO
 ALL CORRECTION TO TEMP.    ARE ZERO
          THERE IS ZERO HEAT FLUX EVERYWHERE

 MAXIMUM NON-PRESCRIBED INCREMENT IN TEMPERATURE IS    0.00    

 ITERATION SUMMARY FOR THE INCREMENT:   1 TOTAL ITERATIONS, OF WHICH
   0 ARE SEVERE DISCONTINUITY ITERATIONS AND  1 ARE EQUILIBRIUM ITERATIONS.

 TIME INCREMENT COMPLETED   10.0    ,  FRACTION OF STEP COMPLETED  0.270    
 STEP TIME COMPLETED        270.    ,  TOTAL TIME COMPLETED         270.    


  INCREMENT    28 STARTS. ATTEMPT NUMBER  1, TIME INCREMENT   10.0    
 
	UNSYMMETRIC NEW DIRECT SPARSE SOLVER RUNNING ON
 	1 HOST x 1 MPI RANK PER HOST x 1 THREAD PER RANK
        NUMBER OF EQUATIONS:  194265
        NUMBER OF RHS:        1
        NUMBER OF FLOPS:      3.477e+11
        SOLVER ELAPSED TIME:  7.4s

               CONVERGENCE CHECKS FOR EQUILIBRIUM ITERATION     1


 AVERAGE FORCE                       3.41       TIME AVG. FORCE        1.77    
 LARGEST SCALED RESIDUAL FORCE      5.973E-03   AT NODE      29007   DOF  2
   INSTANCE: NDBR15-M-1                                                                      
  CORRESPONDING RESIDUAL FORCE      5.973E-03
 LARGEST INCREMENT OF DISP.         1.800E-05   AT NODE         21   DOF  2
   INSTANCE: NDBR15-M-1                                                                      
 LARGEST CORRECTION TO DISP.        1.204E-08   AT NODE      29165   DOF  2
   INSTANCE: NDBR15-M-1                                                                      
          THE FORCE     EQUILIBRIUM EQUATIONS HAVE CONVERGED

 AVERAGE HEAT FLUX                   0.00       TIME AVG. HEAT FLUX   1.000E-02
 ALL HEAT FLUX RESIDUALS ARE ZERO
 ALL TEMP.    INCREMENTS ARE ZERO
 ALL CORRECTION TO TEMP.    ARE ZERO
          THERE IS ZERO HEAT FLUX EVERYWHERE

 MAXIMUM NON-PRESCRIBED INCREMENT IN TEMPERATURE IS    0.00    

 ITERATION SUMMARY FOR THE INCREMENT:   1 TOTAL ITERATIONS, OF WHICH
   0 ARE SEVERE DISCONTINUITY ITERATIONS AND  1 ARE EQUILIBRIUM ITERATIONS.

 TIME INCREMENT COMPLETED   10.0    ,  FRACTION OF STEP COMPLETED  0.280    
 STEP TIME COMPLETED        280.    ,  TOTAL TIME COMPLETED         280.    


  INCREMENT    29 STARTS. ATTEMPT NUMBER  1, TIME INCREMENT   10.0    
 
	UNSYMMETRIC NEW DIRECT SPARSE SOLVER RUNNING ON
 	1 HOST x 1 MPI RANK PER HOST x 1 THREAD PER RANK
        NUMBER OF EQUATIONS:  194265
        NUMBER OF RHS:        1
        NUMBER OF FLOPS:      3.477e+11
        SOLVER ELAPSED TIME:  7.5s

               CONVERGENCE CHECKS FOR EQUILIBRIUM ITERATION     1


 AVERAGE FORCE                       3.54       TIME AVG. FORCE        1.83    
 LARGEST SCALED RESIDUAL FORCE     -7.318E-03   AT NODE      34473   DOF  2
   INSTANCE: NDBR15-M-1                                                                      
  CORRESPONDING RESIDUAL FORCE     -7.318E-03
 LARGEST INCREMENT OF DISP.         1.800E-05   AT NODE         21   DOF  2
   INSTANCE: NDBR15-M-1                                                                      
 LARGEST CORRECTION TO DISP.        3.686E-08   AT NODE      28903   DOF  2
   INSTANCE: NDBR15-M-1                                                                      
          THE FORCE     EQUILIBRIUM EQUATIONS HAVE CONVERGED

 AVERAGE HEAT FLUX                   0.00       TIME AVG. HEAT FLUX   1.000E-02
 ALL HEAT FLUX RESIDUALS ARE ZERO
 ALL TEMP.    INCREMENTS ARE ZERO
 ALL CORRECTION TO TEMP.    ARE ZERO
          THERE IS ZERO HEAT FLUX EVERYWHERE

 MAXIMUM NON-PRESCRIBED INCREMENT IN TEMPERATURE IS    0.00    

 ITERATION SUMMARY FOR THE INCREMENT:   1 TOTAL ITERATIONS, OF WHICH
   0 ARE SEVERE DISCONTINUITY ITERATIONS AND  1 ARE EQUILIBRIUM ITERATIONS.

 TIME INCREMENT COMPLETED   10.0    ,  FRACTION OF STEP COMPLETED  0.290    
 STEP TIME COMPLETED        290.    ,  TOTAL TIME COMPLETED         290.    


  INCREMENT    30 STARTS. ATTEMPT NUMBER  1, TIME INCREMENT   10.0    
 
	UNSYMMETRIC NEW DIRECT SPARSE SOLVER RUNNING ON
 	1 HOST x 1 MPI RANK PER HOST x 1 THREAD PER RANK
        NUMBER OF EQUATIONS:  194265
        NUMBER OF RHS:        1
        NUMBER OF FLOPS:      3.477e+11
        SOLVER ELAPSED TIME:  7.5s

               CONVERGENCE CHECKS FOR EQUILIBRIUM ITERATION     1


 AVERAGE FORCE                       3.66       TIME AVG. FORCE        1.89    
 LARGEST SCALED RESIDUAL FORCE     -8.845E-03   AT NODE      57248   DOF  2
   INSTANCE: NDBR15-M-1                                                                      
  CORRESPONDING RESIDUAL FORCE     -8.845E-03
 LARGEST INCREMENT OF DISP.         1.800E-05   AT NODE         21   DOF  2
   INSTANCE: NDBR15-M-1                                                                      
 LARGEST CORRECTION TO DISP.        4.400E-08   AT NODE      28908   DOF  2
   INSTANCE: NDBR15-M-1                                                                      
          THE FORCE     EQUILIBRIUM EQUATIONS HAVE CONVERGED

 AVERAGE HEAT FLUX                   0.00       TIME AVG. HEAT FLUX   1.000E-02
 ALL HEAT FLUX RESIDUALS ARE ZERO
 ALL TEMP.    INCREMENTS ARE ZERO
 ALL CORRECTION TO TEMP.    ARE ZERO
          THERE IS ZERO HEAT FLUX EVERYWHERE

 MAXIMUM NON-PRESCRIBED INCREMENT IN TEMPERATURE IS    0.00    

 ITERATION SUMMARY FOR THE INCREMENT:   1 TOTAL ITERATIONS, OF WHICH
   0 ARE SEVERE DISCONTINUITY ITERATIONS AND  1 ARE EQUILIBRIUM ITERATIONS.

 TIME INCREMENT COMPLETED   10.0    ,  FRACTION OF STEP COMPLETED  0.300    
 STEP TIME COMPLETED        300.    ,  TOTAL TIME COMPLETED         300.    


  INCREMENT    31 STARTS. ATTEMPT NUMBER  1, TIME INCREMENT   10.0    
 
	UNSYMMETRIC NEW DIRECT SPARSE SOLVER RUNNING ON
 	1 HOST x 1 MPI RANK PER HOST x 1 THREAD PER RANK
        NUMBER OF EQUATIONS:  194265
        NUMBER OF RHS:        1
        NUMBER OF FLOPS:      3.477e+11
        SOLVER ELAPSED TIME:  7.8s

               CONVERGENCE CHECKS FOR EQUILIBRIUM ITERATION     1


 AVERAGE FORCE                       3.78       TIME AVG. FORCE        1.95    
 LARGEST SCALED RESIDUAL FORCE      2.015E-02   AT NODE      28913   DOF  2
   INSTANCE: NDBR15-M-1                                                                      
  CORRESPONDING RESIDUAL FORCE      2.015E-02
 LARGEST INCREMENT OF DISP.         1.800E-05   AT NODE         21   DOF  2
   INSTANCE: NDBR15-M-1                                                                      
 LARGEST CORRECTION TO DISP.        4.673E-08   AT NODE      28911   DOF  2
   INSTANCE: NDBR15-M-1                                                                      
          FORCE     EQUILIBRIUM NOT ACHIEVED WITHIN TOLERANCE.

 AVERAGE HEAT FLUX                   0.00       TIME AVG. HEAT FLUX   1.000E-02
 ALL HEAT FLUX RESIDUALS ARE ZERO
 ALL TEMP.    INCREMENTS ARE ZERO
 ALL CORRECTION TO TEMP.    ARE ZERO
          THERE IS ZERO HEAT FLUX EVERYWHERE
 
	UNSYMMETRIC NEW DIRECT SPARSE SOLVER RUNNING ON
 	1 HOST x 1 MPI RANK PER HOST x 1 THREAD PER RANK
        NUMBER OF EQUATIONS:  194265
        NUMBER OF RHS:        1
        NUMBER OF FLOPS:      3.477e+11
        SOLVER ELAPSED TIME:  7.5s

               CONVERGENCE CHECKS FOR EQUILIBRIUM ITERATION     2


 AVERAGE FORCE                       3.78       TIME AVG. FORCE        1.95    
 LARGEST SCALED RESIDUAL FORCE     -3.061E-05   AT NODE      28913   DOF  2
   INSTANCE: NDBR15-M-1                                                                      
  CORRESPONDING RESIDUAL FORCE     -3.061E-05
 LARGEST INCREMENT OF DISP.         1.800E-05   AT NODE         21   DOF  2
   INSTANCE: NDBR15-M-1                                                                      
 LARGEST CORRECTION TO DISP.        8.432E-10   AT NODE      29150   DOF  2
   INSTANCE: NDBR15-M-1                                                                      
          THE FORCE     EQUILIBRIUM EQUATIONS HAVE CONVERGED

 AVERAGE HEAT FLUX                   0.00       TIME AVG. HEAT FLUX   1.000E-02
 ALL HEAT FLUX RESIDUALS ARE ZERO
 ALL TEMP.    INCREMENTS ARE ZERO
 ALL CORRECTION TO TEMP.    ARE ZERO
          THERE IS ZERO HEAT FLUX EVERYWHERE

 MAXIMUM NON-PRESCRIBED INCREMENT IN TEMPERATURE IS    0.00    

 ITERATION SUMMARY FOR THE INCREMENT:   2 TOTAL ITERATIONS, OF WHICH
   0 ARE SEVERE DISCONTINUITY ITERATIONS AND  2 ARE EQUILIBRIUM ITERATIONS.

 TIME INCREMENT COMPLETED   10.0    ,  FRACTION OF STEP COMPLETED  0.310    
 STEP TIME COMPLETED        310.    ,  TOTAL TIME COMPLETED         310.    


  INCREMENT    32 STARTS. ATTEMPT NUMBER  1, TIME INCREMENT   10.0    
 
	UNSYMMETRIC NEW DIRECT SPARSE SOLVER RUNNING ON
 	1 HOST x 1 MPI RANK PER HOST x 1 THREAD PER RANK
        NUMBER OF EQUATIONS:  194265
        NUMBER OF RHS:        1
        NUMBER OF FLOPS:      3.477e+11
        SOLVER ELAPSED TIME:  7.5s

               CONVERGENCE CHECKS FOR EQUILIBRIUM ITERATION     1


 AVERAGE FORCE                       3.91       TIME AVG. FORCE        2.01    
 LARGEST SCALED RESIDUAL FORCE      9.511E-03   AT NODE      57245   DOF  2
   INSTANCE: NDBR15-M-1                                                                      
  CORRESPONDING RESIDUAL FORCE      9.511E-03
 LARGEST INCREMENT OF DISP.         1.800E-05   AT NODE         21   DOF  2
   INSTANCE: NDBR15-M-1                                                                      
 LARGEST CORRECTION TO DISP.        4.778E-08   AT NODE      29150   DOF  2
   INSTANCE: NDBR15-M-1                                                                      
          THE FORCE     EQUILIBRIUM EQUATIONS HAVE CONVERGED

 AVERAGE HEAT FLUX                   0.00       TIME AVG. HEAT FLUX   1.000E-02
 ALL HEAT FLUX RESIDUALS ARE ZERO
 ALL TEMP.    INCREMENTS ARE ZERO
 ALL CORRECTION TO TEMP.    ARE ZERO
          THERE IS ZERO HEAT FLUX EVERYWHERE

 MAXIMUM NON-PRESCRIBED INCREMENT IN TEMPERATURE IS    0.00    

 ITERATION SUMMARY FOR THE INCREMENT:   1 TOTAL ITERATIONS, OF WHICH
   0 ARE SEVERE DISCONTINUITY ITERATIONS AND  1 ARE EQUILIBRIUM ITERATIONS.

 TIME INCREMENT COMPLETED   10.0    ,  FRACTION OF STEP COMPLETED  0.320    
 STEP TIME COMPLETED        320.    ,  TOTAL TIME COMPLETED         320.    


  INCREMENT    33 STARTS. ATTEMPT NUMBER  1, TIME INCREMENT   10.0    
 
	UNSYMMETRIC NEW DIRECT SPARSE SOLVER RUNNING ON
 	1 HOST x 1 MPI RANK PER HOST x 1 THREAD PER RANK
        NUMBER OF EQUATIONS:  194265
        NUMBER OF RHS:        1
        NUMBER OF FLOPS:      3.477e+11
        SOLVER ELAPSED TIME:  7.6s

               CONVERGENCE CHECKS FOR EQUILIBRIUM ITERATION     1


 AVERAGE FORCE                       4.03       TIME AVG. FORCE        2.07    
 LARGEST SCALED RESIDUAL FORCE     -1.091E-02   AT NODE      63179   DOF  2
   INSTANCE: NDBR15-M-1                                                                      
  CORRESPONDING RESIDUAL FORCE     -1.091E-02
 LARGEST INCREMENT OF DISP.         1.800E-05   AT NODE         21   DOF  2
   INSTANCE: NDBR15-M-1                                                                      
 LARGEST CORRECTION TO DISP.        5.626E-08   AT NODE      28880   DOF  2
   INSTANCE: NDBR15-M-1                                                                      
          FORCE     EQUILIBRIUM NOT ACHIEVED WITHIN TOLERANCE.

 AVERAGE HEAT FLUX                   0.00       TIME AVG. HEAT FLUX   1.000E-02
 ALL HEAT FLUX RESIDUALS ARE ZERO
 ALL TEMP.    INCREMENTS ARE ZERO
 ALL CORRECTION TO TEMP.    ARE ZERO
          THERE IS ZERO HEAT FLUX EVERYWHERE
 
	UNSYMMETRIC NEW DIRECT SPARSE SOLVER RUNNING ON
 	1 HOST x 1 MPI RANK PER HOST x 1 THREAD PER RANK
        NUMBER OF EQUATIONS:  194265
        NUMBER OF RHS:        1
        NUMBER OF FLOPS:      3.477e+11
        SOLVER ELAPSED TIME:  7.4s

               CONVERGENCE CHECKS FOR EQUILIBRIUM ITERATION     2


 AVERAGE FORCE                       4.03       TIME AVG. FORCE        2.07    
 LARGEST SCALED RESIDUAL FORCE      2.099E-05   AT NODE      51419   DOF  2
   INSTANCE: NDBR15-M-1                                                                      
  CORRESPONDING RESIDUAL FORCE      2.099E-05
 LARGEST INCREMENT OF DISP.         1.800E-05   AT NODE         21   DOF  2
   INSTANCE: NDBR15-M-1                                                                      
 LARGEST CORRECTION TO DISP.        4.805E-10   AT NODE      57468   DOF  2
   INSTANCE: NDBR15-M-1                                                                      
          THE FORCE     EQUILIBRIUM EQUATIONS HAVE CONVERGED

 AVERAGE HEAT FLUX                   0.00       TIME AVG. HEAT FLUX   1.000E-02
 ALL HEAT FLUX RESIDUALS ARE ZERO
 ALL TEMP.    INCREMENTS ARE ZERO
 ALL CORRECTION TO TEMP.    ARE ZERO
          THERE IS ZERO HEAT FLUX EVERYWHERE

 MAXIMUM NON-PRESCRIBED INCREMENT IN TEMPERATURE IS    0.00    

 ITERATION SUMMARY FOR THE INCREMENT:   2 TOTAL ITERATIONS, OF WHICH
   0 ARE SEVERE DISCONTINUITY ITERATIONS AND  2 ARE EQUILIBRIUM ITERATIONS.

 TIME INCREMENT COMPLETED   10.0    ,  FRACTION OF STEP COMPLETED  0.330    
 STEP TIME COMPLETED        330.    ,  TOTAL TIME COMPLETED         330.    


  INCREMENT    34 STARTS. ATTEMPT NUMBER  1, TIME INCREMENT   10.0    
 
	UNSYMMETRIC NEW DIRECT SPARSE SOLVER RUNNING ON
 	1 HOST x 1 MPI RANK PER HOST x 1 THREAD PER RANK
        NUMBER OF EQUATIONS:  194265
        NUMBER OF RHS:        1
        NUMBER OF FLOPS:      3.477e+11
        SOLVER ELAPSED TIME:  7.2s

               CONVERGENCE CHECKS FOR EQUILIBRIUM ITERATION     1


 AVERAGE FORCE                       4.15       TIME AVG. FORCE        2.13    
 LARGEST SCALED RESIDUAL FORCE      1.890E-02   AT NODE      45088   DOF  2
   INSTANCE: NDBR15-M-1                                                                      
  CORRESPONDING RESIDUAL FORCE      1.890E-02
 LARGEST INCREMENT OF DISP.         1.800E-05   AT NODE         21   DOF  2
   INSTANCE: NDBR15-M-1                                                                      
 LARGEST CORRECTION TO DISP.        6.471E-08   AT NODE      59935   DOF  2
   INSTANCE: NDBR15-M-1                                                                      
          FORCE     EQUILIBRIUM NOT ACHIEVED WITHIN TOLERANCE.

 AVERAGE HEAT FLUX                   0.00       TIME AVG. HEAT FLUX   1.000E-02
 ALL HEAT FLUX RESIDUALS ARE ZERO
 ALL TEMP.    INCREMENTS ARE ZERO
 ALL CORRECTION TO TEMP.    ARE ZERO
          THERE IS ZERO HEAT FLUX EVERYWHERE
 
	UNSYMMETRIC NEW DIRECT SPARSE SOLVER RUNNING ON
 	1 HOST x 1 MPI RANK PER HOST x 1 THREAD PER RANK
        NUMBER OF EQUATIONS:  194265
        NUMBER OF RHS:        1
        NUMBER OF FLOPS:      3.477e+11
        SOLVER ELAPSED TIME:  7.3s

               CONVERGENCE CHECKS FOR EQUILIBRIUM ITERATION     2


 AVERAGE FORCE                       4.15       TIME AVG. FORCE        2.13    
 LARGEST SCALED RESIDUAL FORCE     -3.547E-05   AT NODE      45088   DOF  2
   INSTANCE: NDBR15-M-1                                                                      
  CORRESPONDING RESIDUAL FORCE     -3.547E-05
 LARGEST INCREMENT OF DISP.         1.800E-05   AT NODE         21   DOF  2
   INSTANCE: NDBR15-M-1                                                                      
 LARGEST CORRECTION TO DISP.        6.836E-10   AT NODE      32016   DOF  3
   INSTANCE: NDBR15-M-1                                                                      
          THE FORCE     EQUILIBRIUM EQUATIONS HAVE CONVERGED

 AVERAGE HEAT FLUX                   0.00       TIME AVG. HEAT FLUX   1.000E-02
 ALL HEAT FLUX RESIDUALS ARE ZERO
 ALL TEMP.    INCREMENTS ARE ZERO
 ALL CORRECTION TO TEMP.    ARE ZERO
          THERE IS ZERO HEAT FLUX EVERYWHERE

 MAXIMUM NON-PRESCRIBED INCREMENT IN TEMPERATURE IS    0.00    

 ITERATION SUMMARY FOR THE INCREMENT:   2 TOTAL ITERATIONS, OF WHICH
   0 ARE SEVERE DISCONTINUITY ITERATIONS AND  2 ARE EQUILIBRIUM ITERATIONS.

 TIME INCREMENT COMPLETED   10.0    ,  FRACTION OF STEP COMPLETED  0.340    
 STEP TIME COMPLETED        340.    ,  TOTAL TIME COMPLETED         340.    


  INCREMENT    35 STARTS. ATTEMPT NUMBER  1, TIME INCREMENT   10.0    
 
	UNSYMMETRIC NEW DIRECT SPARSE SOLVER RUNNING ON
 	1 HOST x 1 MPI RANK PER HOST x 1 THREAD PER RANK
        NUMBER OF EQUATIONS:  194265
        NUMBER OF RHS:        1
        NUMBER OF FLOPS:      3.477e+11
        SOLVER ELAPSED TIME:  7.4s

               CONVERGENCE CHECKS FOR EQUILIBRIUM ITERATION     1


 AVERAGE FORCE                       4.26       TIME AVG. FORCE        2.20    
 LARGEST SCALED RESIDUAL FORCE      1.863E-02   AT NODE      45030   DOF  2
   INSTANCE: NDBR15-M-1                                                                      
  CORRESPONDING RESIDUAL FORCE      1.863E-02
 LARGEST INCREMENT OF DISP.         1.800E-05   AT NODE         21   DOF  2
   INSTANCE: NDBR15-M-1                                                                      
 LARGEST CORRECTION TO DISP.        8.076E-08   AT NODE      58030   DOF  2
   INSTANCE: NDBR15-M-1                                                                      
          FORCE     EQUILIBRIUM NOT ACHIEVED WITHIN TOLERANCE.

 AVERAGE HEAT FLUX                   0.00       TIME AVG. HEAT FLUX   1.000E-02
 ALL HEAT FLUX RESIDUALS ARE ZERO
 ALL TEMP.    INCREMENTS ARE ZERO
 ALL CORRECTION TO TEMP.    ARE ZERO
          THERE IS ZERO HEAT FLUX EVERYWHERE
 
	UNSYMMETRIC NEW DIRECT SPARSE SOLVER RUNNING ON
 	1 HOST x 1 MPI RANK PER HOST x 1 THREAD PER RANK
        NUMBER OF EQUATIONS:  194265
        NUMBER OF RHS:        1
        NUMBER OF FLOPS:      3.477e+11
        SOLVER ELAPSED TIME:  7.5s

               CONVERGENCE CHECKS FOR EQUILIBRIUM ITERATION     2


 AVERAGE FORCE                       4.26       TIME AVG. FORCE        2.20    
 LARGEST SCALED RESIDUAL FORCE     -2.273E-04   AT NODE      50713   DOF  2
   INSTANCE: NDBR15-M-1                                                                      
  CORRESPONDING RESIDUAL FORCE     -2.273E-04
 LARGEST INCREMENT OF DISP.         1.800E-05   AT NODE         21   DOF  2
   INSTANCE: NDBR15-M-1                                                                      
 LARGEST CORRECTION TO DISP.        1.078E-09   AT NODE      57376   DOF  2
   INSTANCE: NDBR15-M-1                                                                      
          THE FORCE     EQUILIBRIUM EQUATIONS HAVE CONVERGED

 AVERAGE HEAT FLUX                   0.00       TIME AVG. HEAT FLUX   1.000E-02
 ALL HEAT FLUX RESIDUALS ARE ZERO
 ALL TEMP.    INCREMENTS ARE ZERO
 ALL CORRECTION TO TEMP.    ARE ZERO
          THERE IS ZERO HEAT FLUX EVERYWHERE

 MAXIMUM NON-PRESCRIBED INCREMENT IN TEMPERATURE IS    0.00    

 ITERATION SUMMARY FOR THE INCREMENT:   2 TOTAL ITERATIONS, OF WHICH
   0 ARE SEVERE DISCONTINUITY ITERATIONS AND  2 ARE EQUILIBRIUM ITERATIONS.

 TIME INCREMENT COMPLETED   10.0    ,  FRACTION OF STEP COMPLETED  0.350    
 STEP TIME COMPLETED        350.    ,  TOTAL TIME COMPLETED         350.    


  INCREMENT    36 STARTS. ATTEMPT NUMBER  1, TIME INCREMENT   10.0    
 
	UNSYMMETRIC NEW DIRECT SPARSE SOLVER RUNNING ON
 	1 HOST x 1 MPI RANK PER HOST x 1 THREAD PER RANK
        NUMBER OF EQUATIONS:  194265
        NUMBER OF RHS:        1
        NUMBER OF FLOPS:      3.477e+11
        SOLVER ELAPSED TIME:  7.7s

               CONVERGENCE CHECKS FOR EQUILIBRIUM ITERATION     1


 AVERAGE FORCE                       4.36       TIME AVG. FORCE        2.26    
 LARGEST SCALED RESIDUAL FORCE      2.389E-02   AT NODE      44971   DOF  2
   INSTANCE: NDBR15-M-1                                                                      
  CORRESPONDING RESIDUAL FORCE      2.389E-02
 LARGEST INCREMENT OF DISP.         1.800E-05   AT NODE         21   DOF  2
   INSTANCE: NDBR15-M-1                                                                      
 LARGEST CORRECTION TO DISP.        1.140E-07   AT NODE      56068   DOF  2
   INSTANCE: NDBR15-M-1                                                                      
          FORCE     EQUILIBRIUM NOT ACHIEVED WITHIN TOLERANCE.

 AVERAGE HEAT FLUX                   0.00       TIME AVG. HEAT FLUX   1.000E-02
 ALL HEAT FLUX RESIDUALS ARE ZERO
 ALL TEMP.    INCREMENTS ARE ZERO
 ALL CORRECTION TO TEMP.    ARE ZERO
          THERE IS ZERO HEAT FLUX EVERYWHERE
 
	UNSYMMETRIC NEW DIRECT SPARSE SOLVER RUNNING ON
 	1 HOST x 1 MPI RANK PER HOST x 1 THREAD PER RANK
        NUMBER OF EQUATIONS:  194265
        NUMBER OF RHS:        1
        NUMBER OF FLOPS:      3.477e+11
        SOLVER ELAPSED TIME:  7.5s

               CONVERGENCE CHECKS FOR EQUILIBRIUM ITERATION     2


 AVERAGE FORCE                       4.36       TIME AVG. FORCE        2.26    
 LARGEST SCALED RESIDUAL FORCE     -9.534E-04   AT NODE      45138   DOF  2
   INSTANCE: NDBR15-M-1                                                                      
  CORRESPONDING RESIDUAL FORCE     -9.534E-04
 LARGEST INCREMENT OF DISP.         1.800E-05   AT NODE         21   DOF  2
   INSTANCE: NDBR15-M-1                                                                      
 LARGEST CORRECTION TO DISP.        1.950E-09   AT NODE      57516   DOF  2
   INSTANCE: NDBR15-M-1                                                                      
          THE FORCE     EQUILIBRIUM EQUATIONS HAVE CONVERGED

 AVERAGE HEAT FLUX                   0.00       TIME AVG. HEAT FLUX   1.000E-02
 ALL HEAT FLUX RESIDUALS ARE ZERO
 ALL TEMP.    INCREMENTS ARE ZERO
 ALL CORRECTION TO TEMP.    ARE ZERO
          THERE IS ZERO HEAT FLUX EVERYWHERE

 MAXIMUM NON-PRESCRIBED INCREMENT IN TEMPERATURE IS    0.00    

 ITERATION SUMMARY FOR THE INCREMENT:   2 TOTAL ITERATIONS, OF WHICH
   0 ARE SEVERE DISCONTINUITY ITERATIONS AND  2 ARE EQUILIBRIUM ITERATIONS.

 TIME INCREMENT COMPLETED   10.0    ,  FRACTION OF STEP COMPLETED  0.360    
 STEP TIME COMPLETED        360.    ,  TOTAL TIME COMPLETED         360.    


  INCREMENT    37 STARTS. ATTEMPT NUMBER  1, TIME INCREMENT   10.0    
 
	UNSYMMETRIC NEW DIRECT SPARSE SOLVER RUNNING ON
 	1 HOST x 1 MPI RANK PER HOST x 1 THREAD PER RANK
        NUMBER OF EQUATIONS:  194265
        NUMBER OF RHS:        1
        NUMBER OF FLOPS:      3.477e+11
        SOLVER ELAPSED TIME:  7.3s

               CONVERGENCE CHECKS FOR EQUILIBRIUM ITERATION     1


 AVERAGE FORCE                       4.49       TIME AVG. FORCE        2.32    
 LARGEST SCALED RESIDUAL FORCE     -4.734E-02   AT NODE      29685   DOF  3
   INSTANCE: NDBR15-M-1                                                                      
  CORRESPONDING RESIDUAL FORCE     -4.734E-02
 LARGEST INCREMENT OF DISP.         1.800E-05   AT NODE         21   DOF  2
   INSTANCE: NDBR15-M-1                                                                      
 LARGEST CORRECTION TO DISP.        1.753E-07   AT NODE      58081   DOF  2
   INSTANCE: NDBR15-M-1                                                                      
          FORCE     EQUILIBRIUM NOT ACHIEVED WITHIN TOLERANCE.

 AVERAGE HEAT FLUX                   0.00       TIME AVG. HEAT FLUX   1.000E-02
 ALL HEAT FLUX RESIDUALS ARE ZERO
 ALL TEMP.    INCREMENTS ARE ZERO
 ALL CORRECTION TO TEMP.    ARE ZERO
          THERE IS ZERO HEAT FLUX EVERYWHERE
 
	UNSYMMETRIC NEW DIRECT SPARSE SOLVER RUNNING ON
 	1 HOST x 1 MPI RANK PER HOST x 1 THREAD PER RANK
        NUMBER OF EQUATIONS:  194265
        NUMBER OF RHS:        1
        NUMBER OF FLOPS:      3.477e+11
        SOLVER ELAPSED TIME:  7.4s

               CONVERGENCE CHECKS FOR EQUILIBRIUM ITERATION     2


 AVERAGE FORCE                       4.49       TIME AVG. FORCE        2.32    
 LARGEST SCALED RESIDUAL FORCE     -1.759E-03   AT NODE      45067   DOF  2
   INSTANCE: NDBR15-M-1                                                                      
  CORRESPONDING RESIDUAL FORCE     -1.759E-03
 LARGEST INCREMENT OF DISP.         1.800E-05   AT NODE         21   DOF  2
   INSTANCE: NDBR15-M-1                                                                      
 LARGEST CORRECTION TO DISP.        6.049E-09   AT NODE      61431   DOF  2
   INSTANCE: NDBR15-M-1                                                                      
          THE FORCE     EQUILIBRIUM EQUATIONS HAVE CONVERGED

 AVERAGE HEAT FLUX                   0.00       TIME AVG. HEAT FLUX   1.000E-02
 ALL HEAT FLUX RESIDUALS ARE ZERO
 ALL TEMP.    INCREMENTS ARE ZERO
 ALL CORRECTION TO TEMP.    ARE ZERO
          THERE IS ZERO HEAT FLUX EVERYWHERE

 MAXIMUM NON-PRESCRIBED INCREMENT IN TEMPERATURE IS    0.00    

 ITERATION SUMMARY FOR THE INCREMENT:   2 TOTAL ITERATIONS, OF WHICH
   0 ARE SEVERE DISCONTINUITY ITERATIONS AND  2 ARE EQUILIBRIUM ITERATIONS.

 TIME INCREMENT COMPLETED   10.0    ,  FRACTION OF STEP COMPLETED  0.370    
 STEP TIME COMPLETED        370.    ,  TOTAL TIME COMPLETED         370.    


  INCREMENT    38 STARTS. ATTEMPT NUMBER  1, TIME INCREMENT   10.0    
 
	UNSYMMETRIC NEW DIRECT SPARSE SOLVER RUNNING ON
 	1 HOST x 1 MPI RANK PER HOST x 1 THREAD PER RANK
        NUMBER OF EQUATIONS:  194265
        NUMBER OF RHS:        1
        NUMBER OF FLOPS:      3.477e+11
        SOLVER ELAPSED TIME:  8.1s

               CONVERGENCE CHECKS FOR EQUILIBRIUM ITERATION     1


 AVERAGE FORCE                       4.61       TIME AVG. FORCE        2.38    
 LARGEST SCALED RESIDUAL FORCE     -5.429E-02   AT NODE      29396   DOF  3
   INSTANCE: NDBR15-M-1                                                                      
  CORRESPONDING RESIDUAL FORCE     -5.429E-02
 LARGEST INCREMENT OF DISP.         1.800E-05   AT NODE         21   DOF  2
   INSTANCE: NDBR15-M-1                                                                      
 LARGEST CORRECTION TO DISP.        4.597E-07   AT NODE      58168   DOF  2
   INSTANCE: NDBR15-M-1                                                                      
          FORCE     EQUILIBRIUM NOT ACHIEVED WITHIN TOLERANCE.

 AVERAGE HEAT FLUX                   0.00       TIME AVG. HEAT FLUX   1.000E-02
 ALL HEAT FLUX RESIDUALS ARE ZERO
 ALL TEMP.    INCREMENTS ARE ZERO
 ALL CORRECTION TO TEMP.    ARE ZERO
          THERE IS ZERO HEAT FLUX EVERYWHERE
 
	UNSYMMETRIC NEW DIRECT SPARSE SOLVER RUNNING ON
 	1 HOST x 1 MPI RANK PER HOST x 1 THREAD PER RANK
        NUMBER OF EQUATIONS:  194265
        NUMBER OF RHS:        1
        NUMBER OF FLOPS:      3.477e+11
        SOLVER ELAPSED TIME:  7.3s

               CONVERGENCE CHECKS FOR EQUILIBRIUM ITERATION     2


 AVERAGE FORCE                       4.61       TIME AVG. FORCE        2.38    
 LARGEST SCALED RESIDUAL FORCE      3.975E-03   AT NODE      43180   DOF  2
   INSTANCE: NDBR15-M-1                                                                      
  CORRESPONDING RESIDUAL FORCE      3.975E-03
 LARGEST INCREMENT OF DISP.         1.800E-05   AT NODE         21   DOF  2
   INSTANCE: NDBR15-M-1                                                                      
[...]
 LARGEST SCALED RESIDUAL FORCE     -1.696E-02   AT NODE      34665   DOF  3
   INSTANCE: NDBR15-M-1                                                                      
  CORRESPONDING RESIDUAL FORCE     -1.696E-02
 LARGEST INCREMENT OF DISP.         2.444E-05   AT NODE      57473   DOF  2
   INSTANCE: NDBR15-M-1                                                                      
 LARGEST CORRECTION TO DISP.       -2.914E-08   AT NODE      57085   DOF  2
   INSTANCE: NDBR15-M-1                                                                      
          THE FORCE     EQUILIBRIUM EQUATIONS HAVE CONVERGED

 AVERAGE HEAT FLUX                   0.00       TIME AVG. HEAT FLUX   1.000E-02
 ALL HEAT FLUX RESIDUALS ARE ZERO
 ALL TEMP.    INCREMENTS ARE ZERO
 ALL CORRECTION TO TEMP.    ARE ZERO
          THERE IS ZERO HEAT FLUX EVERYWHERE

 MAXIMUM NON-PRESCRIBED INCREMENT IN TEMPERATURE IS    0.00    

 ITERATION SUMMARY FOR THE INCREMENT:   4 TOTAL ITERATIONS, OF WHICH
   0 ARE SEVERE DISCONTINUITY ITERATIONS AND  4 ARE EQUILIBRIUM ITERATIONS.

 TIME INCREMENT COMPLETED   10.0    ,  FRACTION OF STEP COMPLETED  0.970    
 STEP TIME COMPLETED        970.    ,  TOTAL TIME COMPLETED         970.    


  INCREMENT    98 STARTS. ATTEMPT NUMBER  1, TIME INCREMENT   10.0    
 
	UNSYMMETRIC NEW DIRECT SPARSE SOLVER RUNNING ON
 	1 HOST x 1 MPI RANK PER HOST x 1 THREAD PER RANK
        NUMBER OF EQUATIONS:  194265
        NUMBER OF RHS:        1
        NUMBER OF FLOPS:      3.477e+11
        SOLVER ELAPSED TIME:  18s

               CONVERGENCE CHECKS FOR EQUILIBRIUM ITERATION     1


 AVERAGE FORCE                       3.81       TIME AVG. FORCE        3.89    
 LARGEST SCALED RESIDUAL FORCE      -1.29       AT NODE      48954   DOF  2
   INSTANCE: NDBR15-M-1                                                                      
  CORRESPONDING RESIDUAL FORCE      -1.29    
 LARGEST INCREMENT OF DISP.         2.511E-05   AT NODE      57474   DOF  2
   INSTANCE: NDBR15-M-1                                                                      
 LARGEST CORRECTION TO DISP.        1.834E-06   AT NODE      44996   DOF  2
   INSTANCE: NDBR15-M-1                                                                      
          FORCE     EQUILIBRIUM NOT ACHIEVED WITHIN TOLERANCE.

 AVERAGE HEAT FLUX                   0.00       TIME AVG. HEAT FLUX   1.000E-02
 ALL HEAT FLUX RESIDUALS ARE ZERO
 ALL TEMP.    INCREMENTS ARE ZERO
 ALL CORRECTION TO TEMP.    ARE ZERO
          THERE IS ZERO HEAT FLUX EVERYWHERE
 
	UNSYMMETRIC NEW DIRECT SPARSE SOLVER RUNNING ON
 	1 HOST x 1 MPI RANK PER HOST x 1 THREAD PER RANK
        NUMBER OF EQUATIONS:  194265
        NUMBER OF RHS:        1
        NUMBER OF FLOPS:      3.477e+11
        SOLVER ELAPSED TIME:  19s

               CONVERGENCE CHECKS FOR EQUILIBRIUM ITERATION     2


 AVERAGE FORCE                       3.81       TIME AVG. FORCE        3.89    
 LARGEST SCALED RESIDUAL FORCE      0.216       AT NODE      34030   DOF  2
   INSTANCE: NDBR15-M-1                                                                      
  CORRESPONDING RESIDUAL FORCE      0.216    
 LARGEST INCREMENT OF DISP.         2.471E-05   AT NODE      57474   DOF  2
   INSTANCE: NDBR15-M-1                                                                      
 LARGEST CORRECTION TO DISP.       -5.714E-07   AT NODE      45110   DOF  2
   INSTANCE: NDBR15-M-1                                                                      
          FORCE     EQUILIBRIUM NOT ACHIEVED WITHIN TOLERANCE.

 AVERAGE HEAT FLUX                   0.00       TIME AVG. HEAT FLUX   1.000E-02
 ALL HEAT FLUX RESIDUALS ARE ZERO
 ALL TEMP.    INCREMENTS ARE ZERO
 ALL CORRECTION TO TEMP.    ARE ZERO
          THERE IS ZERO HEAT FLUX EVERYWHERE
 
	UNSYMMETRIC NEW DIRECT SPARSE SOLVER RUNNING ON
 	1 HOST x 1 MPI RANK PER HOST x 1 THREAD PER RANK
        NUMBER OF EQUATIONS:  194265
        NUMBER OF RHS:        1
        NUMBER OF FLOPS:      3.477e+11
        SOLVER ELAPSED TIME:  19s

               CONVERGENCE CHECKS FOR EQUILIBRIUM ITERATION     3


 AVERAGE FORCE                       3.81       TIME AVG. FORCE        3.89    
 LARGEST SCALED RESIDUAL FORCE      7.517E-02   AT NODE      42968   DOF  2
   INSTANCE: NDBR15-M-1                                                                      
  CORRESPONDING RESIDUAL FORCE      7.517E-02
 LARGEST INCREMENT OF DISP.         2.471E-05   AT NODE      57474   DOF  2
   INSTANCE: NDBR15-M-1                                                                      
 LARGEST CORRECTION TO DISP.       -7.020E-08   AT NODE      56973   DOF  2
   INSTANCE: NDBR15-M-1                                                                      
          FORCE     EQUILIBRIUM NOT ACHIEVED WITHIN TOLERANCE.

 AVERAGE HEAT FLUX                   0.00       TIME AVG. HEAT FLUX   1.000E-02
 ALL HEAT FLUX RESIDUALS ARE ZERO
 ALL TEMP.    INCREMENTS ARE ZERO
 ALL CORRECTION TO TEMP.    ARE ZERO
          THERE IS ZERO HEAT FLUX EVERYWHERE
 
	UNSYMMETRIC NEW DIRECT SPARSE SOLVER RUNNING ON
 	1 HOST x 1 MPI RANK PER HOST x 1 THREAD PER RANK
        NUMBER OF EQUATIONS:  194265
        NUMBER OF RHS:        1
        NUMBER OF FLOPS:      3.477e+11
        SOLVER ELAPSED TIME:  18s

               CONVERGENCE CHECKS FOR EQUILIBRIUM ITERATION     4


 AVERAGE FORCE                       3.81       TIME AVG. FORCE        3.89    
 LARGEST SCALED RESIDUAL FORCE      2.259E-02   AT NODE      57253   DOF  2
   INSTANCE: NDBR15-M-1                                                                      
  CORRESPONDING RESIDUAL FORCE      2.259E-02
 LARGEST INCREMENT OF DISP.         2.471E-05   AT NODE      57474   DOF  2
   INSTANCE: NDBR15-M-1                                                                      
 LARGEST CORRECTION TO DISP.       -2.693E-08   AT NODE      57028   DOF  2
   INSTANCE: NDBR15-M-1                                                                      
          FORCE     EQUILIBRIUM NOT ACHIEVED WITHIN TOLERANCE.

 AVERAGE HEAT FLUX                   0.00       TIME AVG. HEAT FLUX   1.000E-02
 ALL HEAT FLUX RESIDUALS ARE ZERO
 ALL TEMP.    INCREMENTS ARE ZERO
 ALL CORRECTION TO TEMP.    ARE ZERO
          THERE IS ZERO HEAT FLUX EVERYWHERE
 
	UNSYMMETRIC NEW DIRECT SPARSE SOLVER RUNNING ON
 	1 HOST x 1 MPI RANK PER HOST x 1 THREAD PER RANK
        NUMBER OF EQUATIONS:  194265
        NUMBER OF RHS:        1
        NUMBER OF FLOPS:      3.477e+11
        SOLVER ELAPSED TIME:  19s

               CONVERGENCE CHECKS FOR EQUILIBRIUM ITERATION     5


 AVERAGE FORCE                       3.81       TIME AVG. FORCE        3.89    
 LARGEST SCALED RESIDUAL FORCE      1.377E-03   AT NODE      40952   DOF  2
   INSTANCE: NDBR15-M-1                                                                      
  CORRESPONDING RESIDUAL FORCE      1.377E-03
 LARGEST INCREMENT OF DISP.         2.471E-05   AT NODE      57474   DOF  2
   INSTANCE: NDBR15-M-1                                                                      
 LARGEST CORRECTION TO DISP.       -4.169E-09   AT NODE      57084   DOF  2
   INSTANCE: NDBR15-M-1                                                                      
          THE FORCE     EQUILIBRIUM EQUATIONS HAVE CONVERGED

 AVERAGE HEAT FLUX                   0.00       TIME AVG. HEAT FLUX   1.000E-02
 ALL HEAT FLUX RESIDUALS ARE ZERO
 ALL TEMP.    INCREMENTS ARE ZERO
 ALL CORRECTION TO TEMP.    ARE ZERO
          THERE IS ZERO HEAT FLUX EVERYWHERE

 MAXIMUM NON-PRESCRIBED INCREMENT IN TEMPERATURE IS    0.00    

 ITERATION SUMMARY FOR THE INCREMENT:   5 TOTAL ITERATIONS, OF WHICH
   0 ARE SEVERE DISCONTINUITY ITERATIONS AND  5 ARE EQUILIBRIUM ITERATIONS.

 TIME INCREMENT COMPLETED   10.0    ,  FRACTION OF STEP COMPLETED  0.980    
 STEP TIME COMPLETED        980.    ,  TOTAL TIME COMPLETED         980.    


  INCREMENT    99 STARTS. ATTEMPT NUMBER  1, TIME INCREMENT   10.0    
 
	UNSYMMETRIC NEW DIRECT SPARSE SOLVER RUNNING ON
 	1 HOST x 1 MPI RANK PER HOST x 1 THREAD PER RANK
        NUMBER OF EQUATIONS:  194265
        NUMBER OF RHS:        1
        NUMBER OF FLOPS:      3.477e+11
        SOLVER ELAPSED TIME:  18s

               CONVERGENCE CHECKS FOR EQUILIBRIUM ITERATION     1


 AVERAGE FORCE                       3.74       TIME AVG. FORCE        3.89    
 LARGEST SCALED RESIDUAL FORCE       1.02       AT NODE      55019   DOF  2
   INSTANCE: NDBR15-M-1                                                                      
  CORRESPONDING RESIDUAL FORCE       1.02    
 LARGEST INCREMENT OF DISP.         2.532E-05   AT NODE      55515   DOF  2
   INSTANCE: NDBR15-M-1                                                                      
 LARGEST CORRECTION TO DISP.        1.750E-06   AT NODE      29163   DOF  1
   INSTANCE: NDBR15-M-1                                                                      
          FORCE     EQUILIBRIUM NOT ACHIEVED WITHIN TOLERANCE.

 AVERAGE HEAT FLUX                   0.00       TIME AVG. HEAT FLUX   1.000E-02
 ALL HEAT FLUX RESIDUALS ARE ZERO
 ALL TEMP.    INCREMENTS ARE ZERO
 ALL CORRECTION TO TEMP.    ARE ZERO
          THERE IS ZERO HEAT FLUX EVERYWHERE
 
	UNSYMMETRIC NEW DIRECT SPARSE SOLVER RUNNING ON
 	1 HOST x 1 MPI RANK PER HOST x 1 THREAD PER RANK
        NUMBER OF EQUATIONS:  194265
        NUMBER OF RHS:        1
        NUMBER OF FLOPS:      3.477e+11
        SOLVER ELAPSED TIME:  19s

               CONVERGENCE CHECKS FOR EQUILIBRIUM ITERATION     2


 AVERAGE FORCE                       3.74       TIME AVG. FORCE        3.89    
 LARGEST SCALED RESIDUAL FORCE      0.178       AT NODE      32337   DOF  2
   INSTANCE: NDBR15-M-1                                                                      
  CORRESPONDING RESIDUAL FORCE      0.178    
 LARGEST INCREMENT OF DISP.         2.490E-05   AT NODE      57474   DOF  2
   INSTANCE: NDBR15-M-1                                                                      
 LARGEST CORRECTION TO DISP.       -5.786E-07   AT NODE      45052   DOF  2
   INSTANCE: NDBR15-M-1                                                                      
          FORCE     EQUILIBRIUM NOT ACHIEVED WITHIN TOLERANCE.

 AVERAGE HEAT FLUX                   0.00       TIME AVG. HEAT FLUX   1.000E-02
 ALL HEAT FLUX RESIDUALS ARE ZERO
 ALL TEMP.    INCREMENTS ARE ZERO
 ALL CORRECTION TO TEMP.    ARE ZERO
          THERE IS ZERO HEAT FLUX EVERYWHERE
 
	UNSYMMETRIC NEW DIRECT SPARSE SOLVER RUNNING ON
 	1 HOST x 1 MPI RANK PER HOST x 1 THREAD PER RANK
        NUMBER OF EQUATIONS:  194265
        NUMBER OF RHS:        1
        NUMBER OF FLOPS:      3.477e+11
        SOLVER ELAPSED TIME:  19s

               CONVERGENCE CHECKS FOR EQUILIBRIUM ITERATION     3


 AVERAGE FORCE                       3.74       TIME AVG. FORCE        3.89    
 LARGEST SCALED RESIDUAL FORCE      7.631E-02   AT NODE      44986   DOF  2
   INSTANCE: NDBR15-M-1                                                                      
  CORRESPONDING RESIDUAL FORCE      7.631E-02
 LARGEST INCREMENT OF DISP.         2.490E-05   AT NODE      57474   DOF  2
   INSTANCE: NDBR15-M-1                                                                      
 LARGEST CORRECTION TO DISP.       -5.593E-08   AT NODE      29163   DOF  1
   INSTANCE: NDBR15-M-1                                                                      
          FORCE     EQUILIBRIUM NOT ACHIEVED WITHIN TOLERANCE.

 AVERAGE HEAT FLUX                   0.00       TIME AVG. HEAT FLUX   1.000E-02
 ALL HEAT FLUX RESIDUALS ARE ZERO
 ALL TEMP.    INCREMENTS ARE ZERO
 ALL CORRECTION TO TEMP.    ARE ZERO
          THERE IS ZERO HEAT FLUX EVERYWHERE
 
	UNSYMMETRIC NEW DIRECT SPARSE SOLVER RUNNING ON
 	1 HOST x 1 MPI RANK PER HOST x 1 THREAD PER RANK
        NUMBER OF EQUATIONS:  194265
        NUMBER OF RHS:        1
        NUMBER OF FLOPS:      3.477e+11
        SOLVER ELAPSED TIME:  19s

               CONVERGENCE CHECKS FOR EQUILIBRIUM ITERATION     4


 AVERAGE FORCE                       3.74       TIME AVG. FORCE        3.89    
 LARGEST SCALED RESIDUAL FORCE      1.105E-02   AT NODE      42970   DOF  2
   INSTANCE: NDBR15-M-1                                                                      
  CORRESPONDING RESIDUAL FORCE      1.105E-02
 LARGEST INCREMENT OF DISP.         2.490E-05   AT NODE      57474   DOF  2
   INSTANCE: NDBR15-M-1                                                                      
 LARGEST CORRECTION TO DISP.        1.362E-08   AT NODE      32190   DOF  2
   INSTANCE: NDBR15-M-1                                                                      
          THE FORCE     EQUILIBRIUM EQUATIONS HAVE CONVERGED

 AVERAGE HEAT FLUX                   0.00       TIME AVG. HEAT FLUX   1.000E-02
 ALL HEAT FLUX RESIDUALS ARE ZERO
 ALL TEMP.    INCREMENTS ARE ZERO
 ALL CORRECTION TO TEMP.    ARE ZERO
          THERE IS ZERO HEAT FLUX EVERYWHERE

 MAXIMUM NON-PRESCRIBED INCREMENT IN TEMPERATURE IS    0.00    

 ITERATION SUMMARY FOR THE INCREMENT:   4 TOTAL ITERATIONS, OF WHICH
   0 ARE SEVERE DISCONTINUITY ITERATIONS AND  4 ARE EQUILIBRIUM ITERATIONS.

 TIME INCREMENT COMPLETED   10.0    ,  FRACTION OF STEP COMPLETED  0.990    
 STEP TIME COMPLETED        990.    ,  TOTAL TIME COMPLETED         990.    


  INCREMENT   100 STARTS. ATTEMPT NUMBER  1, TIME INCREMENT   10.0    
 
	UNSYMMETRIC NEW DIRECT SPARSE SOLVER RUNNING ON
 	1 HOST x 1 MPI RANK PER HOST x 1 THREAD PER RANK
        NUMBER OF EQUATIONS:  194265
        NUMBER OF RHS:        1
        NUMBER OF FLOPS:      3.477e+11
        SOLVER ELAPSED TIME:  19s

               CONVERGENCE CHECKS FOR EQUILIBRIUM ITERATION     1


 AVERAGE FORCE                       3.66       TIME AVG. FORCE        3.89    
 LARGEST SCALED RESIDUAL FORCE      -1.01       AT NODE      51017   DOF  3
   INSTANCE: NDBR15-M-1                                                                      
  CORRESPONDING RESIDUAL FORCE      -1.01    
 LARGEST INCREMENT OF DISP.         2.553E-05   AT NODE      30042   DOF  2
   INSTANCE: NDBR15-M-1                                                                      
 LARGEST CORRECTION TO DISP.        1.609E-06   AT NODE      29128   DOF  1
   INSTANCE: NDBR15-M-1                                                                      
          FORCE     EQUILIBRIUM NOT ACHIEVED WITHIN TOLERANCE.

 AVERAGE HEAT FLUX                   0.00       TIME AVG. HEAT FLUX   1.000E-02
 ALL HEAT FLUX RESIDUALS ARE ZERO
 ALL TEMP.    INCREMENTS ARE ZERO
 ALL CORRECTION TO TEMP.    ARE ZERO
          THERE IS ZERO HEAT FLUX EVERYWHERE
 
	UNSYMMETRIC NEW DIRECT SPARSE SOLVER RUNNING ON
 	1 HOST x 1 MPI RANK PER HOST x 1 THREAD PER RANK
        NUMBER OF EQUATIONS:  194265
        NUMBER OF RHS:        1
        NUMBER OF FLOPS:      3.477e+11
        SOLVER ELAPSED TIME:  19s

               CONVERGENCE CHECKS FOR EQUILIBRIUM ITERATION     2


 AVERAGE FORCE                       3.67       TIME AVG. FORCE        3.89    
 LARGEST SCALED RESIDUAL FORCE      8.164E-02   AT NODE      53044   DOF  2
   INSTANCE: NDBR15-M-1                                                                      
  CORRESPONDING RESIDUAL FORCE      8.164E-02
 LARGEST INCREMENT OF DISP.         2.501E-05   AT NODE      29162   DOF  2
   INSTANCE: NDBR15-M-1                                                                      
 LARGEST CORRECTION TO DISP.       -5.340E-07   AT NODE      29361   DOF  2
   INSTANCE: NDBR15-M-1                                                                      
          FORCE     EQUILIBRIUM NOT ACHIEVED WITHIN TOLERANCE.

 AVERAGE HEAT FLUX                   0.00       TIME AVG. HEAT FLUX   1.000E-02
 ALL HEAT FLUX RESIDUALS ARE ZERO
 ALL TEMP.    INCREMENTS ARE ZERO
 ALL CORRECTION TO TEMP.    ARE ZERO
          THERE IS ZERO HEAT FLUX EVERYWHERE
 
	UNSYMMETRIC NEW DIRECT SPARSE SOLVER RUNNING ON
 	1 HOST x 1 MPI RANK PER HOST x 1 THREAD PER RANK
        NUMBER OF EQUATIONS:  194265
        NUMBER OF RHS:        1
        NUMBER OF FLOPS:      3.477e+11
        SOLVER ELAPSED TIME:  19s

               CONVERGENCE CHECKS FOR EQUILIBRIUM ITERATION     3


 AVERAGE FORCE                       3.67       TIME AVG. FORCE        3.89    
 LARGEST SCALED RESIDUAL FORCE     -2.617E-02   AT NODE      43026   DOF  2
   INSTANCE: NDBR15-M-1                                                                      
  CORRESPONDING RESIDUAL FORCE     -2.617E-02
 LARGEST INCREMENT OF DISP.         2.501E-05   AT NODE      29162   DOF  2
   INSTANCE: NDBR15-M-1                                                                      
 LARGEST CORRECTION TO DISP.       -4.473E-08   AT NODE      30041   DOF  1
   INSTANCE: NDBR15-M-1                                                                      
          FORCE     EQUILIBRIUM NOT ACHIEVED WITHIN TOLERANCE.

 AVERAGE HEAT FLUX                   0.00       TIME AVG. HEAT FLUX   1.000E-02
 ALL HEAT FLUX RESIDUALS ARE ZERO
 ALL TEMP.    INCREMENTS ARE ZERO
 ALL CORRECTION TO TEMP.    ARE ZERO
          THERE IS ZERO HEAT FLUX EVERYWHERE
 
	UNSYMMETRIC NEW DIRECT SPARSE SOLVER RUNNING ON
 	1 HOST x 1 MPI RANK PER HOST x 1 THREAD PER RANK
        NUMBER OF EQUATIONS:  194265
        NUMBER OF RHS:        1
        NUMBER OF FLOPS:      3.477e+11
        SOLVER ELAPSED TIME:  19s

               CONVERGENCE CHECKS FOR EQUILIBRIUM ITERATION     4


 AVERAGE FORCE                       3.67       TIME AVG. FORCE        3.89    
 LARGEST SCALED RESIDUAL FORCE      4.579E-03   AT NODE      43082   DOF  2
   INSTANCE: NDBR15-M-1                                                                      
  CORRESPONDING RESIDUAL FORCE      4.579E-03
 LARGEST INCREMENT OF DISP.         2.501E-05   AT NODE      29162   DOF  2
   INSTANCE: NDBR15-M-1                                                                      
 LARGEST CORRECTION TO DISP.        4.400E-09   AT NODE      45099   DOF  2
   INSTANCE: NDBR15-M-1                                                                      
          THE FORCE     EQUILIBRIUM EQUATIONS HAVE CONVERGED

 AVERAGE HEAT FLUX                   0.00       TIME AVG. HEAT FLUX   1.000E-02
 ALL HEAT FLUX RESIDUALS ARE ZERO
 ALL TEMP.    INCREMENTS ARE ZERO
 ALL CORRECTION TO TEMP.    ARE ZERO
          THERE IS ZERO HEAT FLUX EVERYWHERE

 MAXIMUM NON-PRESCRIBED INCREMENT IN TEMPERATURE IS    0.00    

 ITERATION SUMMARY FOR THE INCREMENT:   4 TOTAL ITERATIONS, OF WHICH
   0 ARE SEVERE DISCONTINUITY ITERATIONS AND  4 ARE EQUILIBRIUM ITERATIONS.

 TIME INCREMENT COMPLETED   10.0    ,  FRACTION OF STEP COMPLETED   1.00    
 STEP TIME COMPLETED       1.000E+03,  TOTAL TIME COMPLETED        1.000E+03


          THE ANALYSIS HAS BEEN COMPLETED



     ANALYSIS SUMMARY:
     TOTAL OF        100  INCREMENTS
                       0  CUTBACKS IN AUTOMATIC INCREMENTATION
                     198  ITERATIONS INCLUDING CONTACT ITERATIONS IF PRESENT
                     198  PASSES THROUGH THE EQUATION SOLVER OF WHICH 
                     198  INVOLVE MATRIX DECOMPOSITION, INCLUDING
                       0  DECOMPOSITION(S) OF THE MASS MATRIX
                       1  REORDERING OF EQUATIONS TO MINIMIZE WAVEFRONT
                       0  ADDITIONAL RESIDUAL EVALUATIONS FOR LINE SEARCHES
                       0  ADDITIONAL OPERATOR EVALUATIONS FOR LINE SEARCHES
                       5  WARNING MESSAGES DURING USER INPUT PROCESSING
                       0  WARNING MESSAGES DURING ANALYSIS
                       0  ANALYSIS WARNINGS ARE NUMERICAL PROBLEM MESSAGES
                       0  ANALYSIS WARNINGS ARE NEGATIVE EIGENVALUE MESSAGES
                       0  ERROR MESSAGES



     JOB TIME SUMMARY
       USER TIME (SEC)      =     2.02E+03
       SYSTEM TIME (SEC)    =      47.    
       TOTAL CPU TIME (SEC) =     2.06E+03
       WALLCLOCK TIME (SEC) =         5096
       MEMORY PEAK (GB)     =            1
