1

   Abaqus 2023.HF4                                  Date 22-Sep-2024   Time 20:45:15
   For use by AALTO UNIVERSITY under license from Dassault Systemes or its subsidiary.

                                                                                 
                                                                                 
 STEP    1     INCREMENT     1     STEP TIME    0.00    


                        S T E P       1     C O U P L E D - T E M P E R A T U R E - D I S P L A C E M E N T   A N A L Y S I S


                                                                                          

          FIXED TIME INCREMENTS
          TIME INCREMENT IS                                     720.    
          TIME PERIOD IS                                       7.200E+03

          CREEP AND SWELLING EFFECTS ARE OMITTED IN THIS STEP
          THE RATE DEPENDENCY WILL BE CONSIDERED IN THIS STEP

          CREEP AND SWELLING EFFECTS WILL BE IGNORED.

 CONVERGENCE TOLERANCE PARAMETERS FOR FORCE    
     CRITERION FOR RESIDUAL FORCE     FOR A NONLINEAR PROBLEM          5.000E-03
     CRITERION FOR DISP.    CORRECTION IN A NONLINEAR PROBLEM          1.000E-02
     INITIAL VALUE OF TIME AVERAGE FORCE                               1.000E-02
     AVERAGE FORCE     IS TIME AVERAGE FORCE    
     ALTERNATE CRIT. FOR RESIDUAL FORCE     FOR A NONLINEAR PROBLEM    2.000E-02
     CRITERION FOR ZERO FORCE     RELATIVE TO TIME AVRG. FORCE         1.000E-05
     CRITERION FOR RESIDUAL FORCE     WHEN THERE IS ZERO FLUX          1.000E-05
     CRITERION FOR DISP.    CORRECTION WHEN THERE IS ZERO FLUX         1.000E-03
     CRITERION FOR RESIDUAL FORCE     FOR A LINEAR INCREMENT           1.000E-08
     FIELD CONVERSION RATIO                                             1.00    
     CRITERION FOR ZERO FORCE     REL. TO TIME AVRG. MAX. FORCE        1.000E-05
     CRITERION FOR ZERO DISP.    RELATIVE TO CHARACTERISTIC LENGTH     1.000E-08

 CONVERGENCE TOLERANCE PARAMETERS FOR HEAT FLUX
     CRITERION FOR RESIDUAL HEAT FLUX FOR A NONLINEAR PROBLEM          5.000E-03
     CRITERION FOR TEMP.    CORRECTION IN A NONLINEAR PROBLEM          1.000E-02
     INITIAL VALUE OF TIME AVERAGE HEAT FLUX                           1.000E-02
     AVERAGE HEAT FLUX IS TIME AVERAGE HEAT FLUX
     ALTERNATE CRIT. FOR RESIDUAL HEAT FLUX FOR A NONLINEAR PROBLEM    2.000E-02
     CRITERION FOR ZERO HEAT FLUX RELATIVE TO TIME AVRG. HEAT FLUX     1.000E-05
     CRITERION FOR RESIDUAL HEAT FLUX WHEN THERE IS ZERO FLUX          1.000E-05
     CRITERION FOR TEMP.    CORRECTION WHEN THERE IS ZERO FLUX         1.000E-03
     CRITERION FOR RESIDUAL HEAT FLUX FOR A LINEAR INCREMENT           1.000E-08
     FIELD CONVERSION RATIO                                             1.00    
     CRITERION FOR ZERO HEAT FLUX REL. TO TIME AVRG. MAX. HEAT FLUX    1.000E-05

     VOLUMETRIC STRAIN COMPATIBILITY TOLERANCE FOR HYBRID SOLIDS       1.000E-05
     AXIAL STRAIN COMPATIBILITY TOLERANCE FOR HYBRID BEAMS             1.000E-05
     TRANS. SHEAR STRAIN COMPATIBILITY TOLERANCE FOR HYBRID BEAMS      1.000E-05
     SOFT CONTACT CONSTRAINT COMPATIBILITY TOLERANCE FOR P>P0          5.000E-03
     SOFT CONTACT CONSTRAINT COMPATIBILITY TOLERANCE FOR P=0.0         0.100    
     CONTACT FORCE ERROR TOLERANCE FOR CONVERT SDI=YES                 1.00    
     DISPLACEMENT COMPATIBILITY TOLERANCE FOR DCOUP ELEMENTS           1.000E-05
     ROTATION COMPATIBILITY TOLERANCE FOR DCOUP ELEMENTS               1.000E-05

 EQUILIBRIUM WILL BE CHECKED FOR SEVERE DISCONTINUITY ITERATIONS

 ITERATION CONTROL PARAMETERS:
     FIRST EQUILIBRIUM ITERATION FOR CONSECUTIVE DIVERGENCE CHECK              4
     EQUILIBRIUM ITERATION AFTER WHICH ALTERNATE RESIDUAL IS USED              9
     MAXIMUM EQUILIBRIUM ITERATIONS ALLOWED                                   16
     MAXIMUM ITERATIONS FOR SEVERE DISCONTINUITIES                            12
     GLOBAL STABILIZATION CONTROL IS NOT USED

          PRINT OF INCREMENT NUMBER, TIME, ETC., EVERY    1  INCREMENTS

     THE MAXIMUM NUMBER OF INCREMENTS IN THIS STEP IS                 1000000

          LARGE DISPLACEMENT THEORY WILL BE USED

          UNSYMMETRIC MATRIX STORAGE AND SOLUTION WILL BE USED

     LINEAR EXTRAPOLATION WILL BE USED

     CHARACTERISTIC ELEMENT LENGTH     2.133E-04

     DETAILS REGARDING ACTUAL SOLUTION WAVEFRONT REQUESTED

     DETAILED OUTPUT OF DIAGNOSTICS TO DATABASE REQUESTED

     PRINT OF INCREMENT NUMBER, TIME, ETC., TO THE MESSAGE FILE EVERY     1  INCREMENTS

     ELEMENT OPERATIONS WILL BE CARRIED OUT IN PARALLEL USING   8 THREADS ON 1 DOMAIN

     PARALLEL CONTACT TRACKING ENABLED


     COLLECTING MODEL CONSTRAINT INFORMATION FOR OVERCONSTRAINT CHECKS

     COLLECTING STEP CONSTRAINT INFORMATION FOR OVERCONSTRAINT CHECKS


  INCREMENT     1 STARTS. ATTEMPT NUMBER  1, TIME INCREMENT   720.    
 
     INITIAL ELEMENT LOAD BALANCE
            DOMAIN    1     THREAD    NUMBER OF ELEMENTS
                              1            8200
                              2            8520
                              3            8352
                              4            8360
                              5            8408
                              6            8656
                              7            8456
                              8            8522
 
	UNSYMMETRIC NEW DIRECT SPARSE SOLVER RUNNING ON
 	1 HOST x 1 MPI RANK PER HOST x 8 THREADS PER RANK
        NUMBER OF EQUATIONS:  210375
        NUMBER OF RHS:        1
        NUMBER OF FLOPS:      5.219e+11
        SOLVER ELAPSED TIME:  2.5s

               CONVERGENCE CHECKS FOR EQUILIBRIUM ITERATION     1


 AVERAGE FORCE                       0.00       TIME AVG. FORCE       1.000E-02
 ALL FORCE     RESIDUALS ARE ZERO
 ALL DISP.    INCREMENTS ARE ZERO
 ALL CORRECTION TO DISP.    ARE ZERO
          THERE IS ZERO FORCE     EVERYWHERE

 AVERAGE HEAT FLUX                   201.       TIME AVG. HEAT FLUX    201.    
 LARGEST RESIDUAL HEAT FLUX         1.824E-10   AT NODE       1181   DOF 11
   INSTANCE: NDBR6                                                                           
 LARGEST INCREMENT OF TEMP.          8.72       AT NODE          1   DOF 11
   INSTANCE: NDBR6                                                                           
 LARGEST CORRECTION TO TEMP.         8.72       AT NODE          1   DOF 11
   INSTANCE: NDBR6                                                                           
          THE HEAT FLUX EQUILIBRIUM RESPONSE WAS LINEAR IN THIS INCREMENT

 ITERATION SUMMARY FOR THE INCREMENT:   1 TOTAL ITERATIONS, OF WHICH
   0 ARE SEVERE DISCONTINUITY ITERATIONS AND  1 ARE EQUILIBRIUM ITERATIONS.

 TIME INCREMENT COMPLETED   720.    ,  FRACTION OF STEP COMPLETED  0.100    
 STEP TIME COMPLETED        720.    ,  TOTAL TIME COMPLETED         720.    


  INCREMENT     2 STARTS. ATTEMPT NUMBER  1, TIME INCREMENT   720.    
 
	UNSYMMETRIC NEW DIRECT SPARSE SOLVER RUNNING ON
 	1 HOST x 1 MPI RANK PER HOST x 8 THREADS PER RANK
        NUMBER OF EQUATIONS:  210375
        NUMBER OF RHS:        1
        NUMBER OF FLOPS:      5.219e+11
        SOLVER ELAPSED TIME:  2.8s

               CONVERGENCE CHECKS FOR EQUILIBRIUM ITERATION     1


 AVERAGE FORCE                       0.00       TIME AVG. FORCE       1.000E-02
 ALL FORCE     RESIDUALS ARE ZERO
 ALL DISP.    INCREMENTS ARE ZERO
 ALL CORRECTION TO DISP.    ARE ZERO
          THERE IS ZERO FORCE     EVERYWHERE

 AVERAGE HEAT FLUX                   121.       TIME AVG. HEAT FLUX    161.    
 LARGEST RESIDUAL HEAT FLUX        -9.595E-11   AT NODE       1309   DOF 11
   INSTANCE: NDBR6                                                                           
 LARGEST INCREMENT OF TEMP.          3.40       AT NODE      41996   DOF 11
   INSTANCE: NDBR6                                                                           
 LARGEST CORRECTION TO TEMP.        -8.72       AT NODE          1   DOF 11
   INSTANCE: NDBR6                                                                           
          THE HEAT FLUX EQUILIBRIUM RESPONSE WAS LINEAR IN THIS INCREMENT

 ITERATION SUMMARY FOR THE INCREMENT:   1 TOTAL ITERATIONS, OF WHICH
   0 ARE SEVERE DISCONTINUITY ITERATIONS AND  1 ARE EQUILIBRIUM ITERATIONS.

 TIME INCREMENT COMPLETED   720.    ,  FRACTION OF STEP COMPLETED  0.200    
 STEP TIME COMPLETED       1.440E+03,  TOTAL TIME COMPLETED        1.440E+03


  INCREMENT     3 STARTS. ATTEMPT NUMBER  1, TIME INCREMENT   720.    
 
	UNSYMMETRIC NEW DIRECT SPARSE SOLVER RUNNING ON
 	1 HOST x 1 MPI RANK PER HOST x 8 THREADS PER RANK
        NUMBER OF EQUATIONS:  210375
        NUMBER OF RHS:        1
        NUMBER OF FLOPS:      5.219e+11
        SOLVER ELAPSED TIME:  2.7s

               CONVERGENCE CHECKS FOR EQUILIBRIUM ITERATION     1


 AVERAGE FORCE                       0.00       TIME AVG. FORCE       1.000E-02
 ALL FORCE     RESIDUALS ARE ZERO
 ALL DISP.    INCREMENTS ARE ZERO
 ALL CORRECTION TO DISP.    ARE ZERO
          THERE IS ZERO FORCE     EVERYWHERE

 AVERAGE HEAT FLUX                   36.8       TIME AVG. HEAT FLUX    120.    
 LARGEST RESIDUAL HEAT FLUX         5.150E-11   AT NODE         64   DOF 11
   INSTANCE: NDBR6                                                                           
 LARGEST INCREMENT OF TEMP.          1.01       AT NODE      41991   DOF 11
   INSTANCE: NDBR6                                                                           
 LARGEST CORRECTION TO TEMP.        -2.39       AT NODE      41996   DOF 11
   INSTANCE: NDBR6                                                                           
          THE HEAT FLUX EQUILIBRIUM RESPONSE WAS LINEAR IN THIS INCREMENT

 ITERATION SUMMARY FOR THE INCREMENT:   1 TOTAL ITERATIONS, OF WHICH
   0 ARE SEVERE DISCONTINUITY ITERATIONS AND  1 ARE EQUILIBRIUM ITERATIONS.

 TIME INCREMENT COMPLETED   720.    ,  FRACTION OF STEP COMPLETED  0.300    
 STEP TIME COMPLETED       2.160E+03,  TOTAL TIME COMPLETED        2.160E+03


  INCREMENT     4 STARTS. ATTEMPT NUMBER  1, TIME INCREMENT   720.    
 
	UNSYMMETRIC NEW DIRECT SPARSE SOLVER RUNNING ON
 	1 HOST x 1 MPI RANK PER HOST x 8 THREADS PER RANK
        NUMBER OF EQUATIONS:  210375
        NUMBER OF RHS:        1
        NUMBER OF FLOPS:      5.219e+11
        SOLVER ELAPSED TIME:  2.5s

               CONVERGENCE CHECKS FOR EQUILIBRIUM ITERATION     1


 AVERAGE FORCE                       0.00       TIME AVG. FORCE       1.000E-02
 ALL FORCE     RESIDUALS ARE ZERO
 ALL DISP.    INCREMENTS ARE ZERO
 ALL CORRECTION TO DISP.    ARE ZERO
          THERE IS ZERO FORCE     EVERYWHERE

 AVERAGE HEAT FLUX                   5.22       TIME AVG. HEAT FLUX    91.1    
 LARGEST RESIDUAL HEAT FLUX         3.837E-11   AT NODE      39188   DOF 11
   INSTANCE: NDBR6                                                                           
 LARGEST INCREMENT OF TEMP.         0.294       AT NODE      41991   DOF 11
   INSTANCE: NDBR6                                                                           
 LARGEST CORRECTION TO TEMP.       -0.716       AT NODE      41991   DOF 11
   INSTANCE: NDBR6                                                                           
          THE HEAT FLUX EQUILIBRIUM RESPONSE WAS LINEAR IN THIS INCREMENT

 ITERATION SUMMARY FOR THE INCREMENT:   1 TOTAL ITERATIONS, OF WHICH
   0 ARE SEVERE DISCONTINUITY ITERATIONS AND  1 ARE EQUILIBRIUM ITERATIONS.

 TIME INCREMENT COMPLETED   720.    ,  FRACTION OF STEP COMPLETED  0.400    
 STEP TIME COMPLETED       2.880E+03,  TOTAL TIME COMPLETED        2.880E+03


  INCREMENT     5 STARTS. ATTEMPT NUMBER  1, TIME INCREMENT   720.    
 
	UNSYMMETRIC NEW DIRECT SPARSE SOLVER RUNNING ON
 	1 HOST x 1 MPI RANK PER HOST x 8 THREADS PER RANK
        NUMBER OF EQUATIONS:  210375
        NUMBER OF RHS:        1
        NUMBER OF FLOPS:      5.219e+11
        SOLVER ELAPSED TIME:  2.6s

               CONVERGENCE CHECKS FOR EQUILIBRIUM ITERATION     1


 AVERAGE FORCE                       0.00       TIME AVG. FORCE       1.000E-02
 ALL FORCE     RESIDUALS ARE ZERO
 ALL DISP.    INCREMENTS ARE ZERO
 ALL CORRECTION TO DISP.    ARE ZERO
          THERE IS ZERO FORCE     EVERYWHERE

 AVERAGE HEAT FLUX                   1.58       TIME AVG. HEAT FLUX    73.2    
 LARGEST RESIDUAL HEAT FLUX         3.712E-11   AT NODE      40758   DOF 11
   INSTANCE: NDBR6                                                                           
 LARGEST INCREMENT OF TEMP.         8.505E-02   AT NODE      41996   DOF 11
   INSTANCE: NDBR6                                                                           
 LARGEST CORRECTION TO TEMP.       -0.209       AT NODE      41991   DOF 11
   INSTANCE: NDBR6                                                                           
          THE HEAT FLUX EQUILIBRIUM RESPONSE WAS LINEAR IN THIS INCREMENT

 ITERATION SUMMARY FOR THE INCREMENT:   1 TOTAL ITERATIONS, OF WHICH
   0 ARE SEVERE DISCONTINUITY ITERATIONS AND  1 ARE EQUILIBRIUM ITERATIONS.

 TIME INCREMENT COMPLETED   720.    ,  FRACTION OF STEP COMPLETED  0.500    
 STEP TIME COMPLETED       3.600E+03,  TOTAL TIME COMPLETED        3.600E+03


  INCREMENT     6 STARTS. ATTEMPT NUMBER  1, TIME INCREMENT   720.    
 
	UNSYMMETRIC NEW DIRECT SPARSE SOLVER RUNNING ON
 	1 HOST x 1 MPI RANK PER HOST x 8 THREADS PER RANK
        NUMBER OF EQUATIONS:  210375
        NUMBER OF RHS:        1
        NUMBER OF FLOPS:      5.219e+11
        SOLVER ELAPSED TIME:  2.7s

               CONVERGENCE CHECKS FOR EQUILIBRIUM ITERATION     1


 AVERAGE FORCE                       0.00       TIME AVG. FORCE       1.000E-02
 ALL FORCE     RESIDUALS ARE ZERO
 ALL DISP.    INCREMENTS ARE ZERO
 ALL CORRECTION TO DISP.    ARE ZERO
          THERE IS ZERO FORCE     EVERYWHERE

 AVERAGE HEAT FLUX                  0.478       TIME AVG. HEAT FLUX    61.1    
 LARGEST RESIDUAL HEAT FLUX         4.164E-11   AT NODE      40349   DOF 11
   INSTANCE: NDBR6                                                                           
 LARGEST INCREMENT OF TEMP.         2.477E-02   AT NODE         13   DOF 11
   INSTANCE: NDBR6                                                                           
 LARGEST CORRECTION TO TEMP.       -6.045E-02   AT NODE      41991   DOF 11
   INSTANCE: NDBR6                                                                           
          THE HEAT FLUX EQUILIBRIUM RESPONSE WAS LINEAR IN THIS INCREMENT

 ITERATION SUMMARY FOR THE INCREMENT:   1 TOTAL ITERATIONS, OF WHICH
   0 ARE SEVERE DISCONTINUITY ITERATIONS AND  1 ARE EQUILIBRIUM ITERATIONS.

 TIME INCREMENT COMPLETED   720.    ,  FRACTION OF STEP COMPLETED  0.600    
 STEP TIME COMPLETED       4.320E+03,  TOTAL TIME COMPLETED        4.320E+03


  INCREMENT     7 STARTS. ATTEMPT NUMBER  1, TIME INCREMENT   720.    
 
	UNSYMMETRIC NEW DIRECT SPARSE SOLVER RUNNING ON
 	1 HOST x 1 MPI RANK PER HOST x 8 THREADS PER RANK
        NUMBER OF EQUATIONS:  210375
        NUMBER OF RHS:        1
        NUMBER OF FLOPS:      5.219e+11
        SOLVER ELAPSED TIME:  2.7s

               CONVERGENCE CHECKS FOR EQUILIBRIUM ITERATION     1


 AVERAGE FORCE                       0.00       TIME AVG. FORCE       1.000E-02
 ALL FORCE     RESIDUALS ARE ZERO
 ALL DISP.    INCREMENTS ARE ZERO
 ALL CORRECTION TO DISP.    ARE ZERO
          THERE IS ZERO FORCE     EVERYWHERE

 AVERAGE HEAT FLUX                  0.145       TIME AVG. HEAT FLUX    52.4    
 LARGEST RESIDUAL HEAT FLUX         5.137E-11   AT NODE        676   DOF 11
   INSTANCE: NDBR6                                                                           
 LARGEST INCREMENT OF TEMP.         7.516E-03   AT NODE         19   DOF 11
   INSTANCE: NDBR6                                                                           
 LARGEST CORRECTION TO TEMP.       -1.748E-02   AT NODE      41996   DOF 11
   INSTANCE: NDBR6                                                                           
          THE HEAT FLUX EQUILIBRIUM RESPONSE WAS LINEAR IN THIS INCREMENT

 ITERATION SUMMARY FOR THE INCREMENT:   1 TOTAL ITERATIONS, OF WHICH
   0 ARE SEVERE DISCONTINUITY ITERATIONS AND  1 ARE EQUILIBRIUM ITERATIONS.

 TIME INCREMENT COMPLETED   720.    ,  FRACTION OF STEP COMPLETED  0.700    
 STEP TIME COMPLETED       5.040E+03,  TOTAL TIME COMPLETED        5.040E+03


  INCREMENT     8 STARTS. ATTEMPT NUMBER  1, TIME INCREMENT   720.    
 
	UNSYMMETRIC NEW DIRECT SPARSE SOLVER RUNNING ON
 	1 HOST x 1 MPI RANK PER HOST x 8 THREADS PER RANK
        NUMBER OF EQUATIONS:  210375
        NUMBER OF RHS:        1
        NUMBER OF FLOPS:      5.219e+11
        SOLVER ELAPSED TIME:  2.6s

               CONVERGENCE CHECKS FOR EQUILIBRIUM ITERATION     1


 AVERAGE FORCE                       0.00       TIME AVG. FORCE       1.000E-02
 ALL FORCE     RESIDUALS ARE ZERO
 ALL DISP.    INCREMENTS ARE ZERO
 ALL CORRECTION TO DISP.    ARE ZERO
          THERE IS ZERO FORCE     EVERYWHERE

 AVERAGE HEAT FLUX                  4.375E-02   TIME AVG. HEAT FLUX    45.8    
 LARGEST RESIDUAL HEAT FLUX         4.248E-11   AT NODE      41916   DOF 11
   INSTANCE: NDBR6                                                                           
 LARGEST INCREMENT OF TEMP.         2.281E-03   AT NODE         19   DOF 11
   INSTANCE: NDBR6                                                                           
 LARGEST CORRECTION TO TEMP.       -5.235E-03   AT NODE         19   DOF 11
   INSTANCE: NDBR6                                                                           
          THE HEAT FLUX EQUILIBRIUM RESPONSE WAS LINEAR IN THIS INCREMENT

 ITERATION SUMMARY FOR THE INCREMENT:   1 TOTAL ITERATIONS, OF WHICH
   0 ARE SEVERE DISCONTINUITY ITERATIONS AND  1 ARE EQUILIBRIUM ITERATIONS.

 TIME INCREMENT COMPLETED   720.    ,  FRACTION OF STEP COMPLETED  0.800    
 STEP TIME COMPLETED       5.760E+03,  TOTAL TIME COMPLETED        5.760E+03


  INCREMENT     9 STARTS. ATTEMPT NUMBER  1, TIME INCREMENT   720.    
 
	UNSYMMETRIC NEW DIRECT SPARSE SOLVER RUNNING ON
 	1 HOST x 1 MPI RANK PER HOST x 8 THREADS PER RANK
        NUMBER OF EQUATIONS:  210375
        NUMBER OF RHS:        1
        NUMBER OF FLOPS:      5.219e+11
        SOLVER ELAPSED TIME:  2.6s

               CONVERGENCE CHECKS FOR EQUILIBRIUM ITERATION     1


 AVERAGE FORCE                       0.00       TIME AVG. FORCE       1.000E-02
 ALL FORCE     RESIDUALS ARE ZERO
 ALL DISP.    INCREMENTS ARE ZERO
 ALL CORRECTION TO DISP.    ARE ZERO
          THERE IS ZERO FORCE     EVERYWHERE

 AVERAGE HEAT FLUX                  1.325E-02   TIME AVG. HEAT FLUX    40.7    
 LARGEST RESIDUAL HEAT FLUX        -4.191E-11   AT NODE      41142   DOF 11
   INSTANCE: NDBR6                                                                           
 LARGEST INCREMENT OF TEMP.         7.136E-04   AT NODE        199   DOF 11
   INSTANCE: NDBR6                                                                           
 LARGEST CORRECTION TO TEMP.       -1.589E-03   AT NODE         19   DOF 11
   INSTANCE: NDBR6                                                                           
          THE HEAT FLUX EQUILIBRIUM RESPONSE WAS LINEAR IN THIS INCREMENT

 ITERATION SUMMARY FOR THE INCREMENT:   1 TOTAL ITERATIONS, OF WHICH
   0 ARE SEVERE DISCONTINUITY ITERATIONS AND  1 ARE EQUILIBRIUM ITERATIONS.

 TIME INCREMENT COMPLETED   720.    ,  FRACTION OF STEP COMPLETED  0.900    
 STEP TIME COMPLETED       6.480E+03,  TOTAL TIME COMPLETED        6.480E+03


  INCREMENT    10 STARTS. ATTEMPT NUMBER  1, TIME INCREMENT   720.    
 
	UNSYMMETRIC NEW DIRECT SPARSE SOLVER RUNNING ON
 	1 HOST x 1 MPI RANK PER HOST x 8 THREADS PER RANK
        NUMBER OF EQUATIONS:  210375
        NUMBER OF RHS:        1
        NUMBER OF FLOPS:      5.219e+11
        SOLVER ELAPSED TIME:  2.6s

               CONVERGENCE CHECKS FOR EQUILIBRIUM ITERATION     1


 AVERAGE FORCE                       0.00       TIME AVG. FORCE       1.000E-02
 ALL FORCE     RESIDUALS ARE ZERO
 ALL DISP.    INCREMENTS ARE ZERO
 ALL CORRECTION TO DISP.    ARE ZERO
          THERE IS ZERO FORCE     EVERYWHERE

 AVERAGE HEAT FLUX                  4.013E-03   TIME AVG. HEAT FLUX    36.7    
 LARGEST RESIDUAL HEAT FLUX        -3.959E-11   AT NODE      39193   DOF 11
   INSTANCE: NDBR6                                                                           
 LARGEST INCREMENT OF TEMP.         2.231E-04   AT NODE        199   DOF 11
   INSTANCE: NDBR6                                                                           
 LARGEST CORRECTION TO TEMP.       -4.905E-04   AT NODE        199   DOF 11
   INSTANCE: NDBR6                                                                           
          THE HEAT FLUX EQUILIBRIUM RESPONSE WAS LINEAR IN THIS INCREMENT

 ITERATION SUMMARY FOR THE INCREMENT:   1 TOTAL ITERATIONS, OF WHICH
   0 ARE SEVERE DISCONTINUITY ITERATIONS AND  1 ARE EQUILIBRIUM ITERATIONS.

 TIME INCREMENT COMPLETED   720.    ,  FRACTION OF STEP COMPLETED   1.00    
 STEP TIME COMPLETED       7.200E+03,  TOTAL TIME COMPLETED        7.200E+03
1

   Abaqus 2023.HF4                                  Date 22-Sep-2024   Time 20:45:59
   For use by AALTO UNIVERSITY under license from Dassault Systemes or its subsidiary.

                                                                                 
                                                                                 
 STEP    2     INCREMENT     1     STEP TIME    0.00    


                        S T E P       2     C O U P L E D - T E M P E R A T U R E - D I S P L A C E M E N T   A N A L Y S I S


                                                                                          

     AUTOMATIC TIME CONTROL WITH -
          A SUGGESTED INITIAL TIME INCREMENT OF                 5.45    
          AND A TOTAL TIME PERIOD OF                            545.    
          THE MINIMUM TIME INCREMENT ALLOWED IS                1.000E-07
          THE MAXIMUM TIME INCREMENT ALLOWED IS                 5.45    

          CREEP AND SWELLING EFFECTS ARE OMITTED IN THIS STEP

     THE SIZE OF THE TIME INCREMENT IS CONTROLLED BY -
          THE TEMPERATURE CHANGE PER INCREMENT NOT EXCEEDING           1.000E+03
          THE RATE DEPENDENCY WILL BE CONSIDERED IN THIS STEP

          CREEP AND SWELLING EFFECTS WILL BE IGNORED.

 CONVERGENCE TOLERANCE PARAMETERS FOR FORCE    
     CRITERION FOR RESIDUAL FORCE     FOR A NONLINEAR PROBLEM          5.000E-03
     CRITERION FOR DISP.    CORRECTION IN A NONLINEAR PROBLEM          1.000E-02
     INIT. VALUE OF TIME AVG. FORCE     IS TIME AVG. FORCE     IN PREVIOUS STEP
     AVERAGE FORCE     IS TIME AVERAGE FORCE    
     ALTERNATE CRIT. FOR RESIDUAL FORCE     FOR A NONLINEAR PROBLEM    2.000E-02
     CRITERION FOR ZERO FORCE     RELATIVE TO TIME AVRG. FORCE         1.000E-05
     CRITERION FOR RESIDUAL FORCE     WHEN THERE IS ZERO FLUX          1.000E-05
     CRITERION FOR DISP.    CORRECTION WHEN THERE IS ZERO FLUX         1.000E-03
     CRITERION FOR RESIDUAL FORCE     FOR A LINEAR INCREMENT           1.000E-08
     FIELD CONVERSION RATIO                                             1.00    
     CRITERION FOR ZERO FORCE     REL. TO TIME AVRG. MAX. FORCE        1.000E-05
     CRITERION FOR ZERO DISP.    RELATIVE TO CHARACTERISTIC LENGTH     1.000E-08

 CONVERGENCE TOLERANCE PARAMETERS FOR HEAT FLUX
     CRITERION FOR RESIDUAL HEAT FLUX FOR A NONLINEAR PROBLEM          5.000E-03
     CRITERION FOR TEMP.    CORRECTION IN A NONLINEAR PROBLEM          1.000E-02
     INIT. VALUE OF TIME AVG. HEAT FLUX IS TIME AVG. HEAT FLUX IN PREVIOUS STEP
     AVERAGE HEAT FLUX IS TIME AVERAGE HEAT FLUX
     ALTERNATE CRIT. FOR RESIDUAL HEAT FLUX FOR A NONLINEAR PROBLEM    2.000E-02
     CRITERION FOR ZERO HEAT FLUX RELATIVE TO TIME AVRG. HEAT FLUX     1.000E-05
     CRITERION FOR RESIDUAL HEAT FLUX WHEN THERE IS ZERO FLUX          1.000E-05
     CRITERION FOR TEMP.    CORRECTION WHEN THERE IS ZERO FLUX         1.000E-03
     CRITERION FOR RESIDUAL HEAT FLUX FOR A LINEAR INCREMENT           1.000E-08
     FIELD CONVERSION RATIO                                             1.00    
     CRITERION FOR ZERO HEAT FLUX REL. TO TIME AVRG. MAX. HEAT FLUX    1.000E-05

     VOLUMETRIC STRAIN COMPATIBILITY TOLERANCE FOR HYBRID SOLIDS       1.000E-05
     AXIAL STRAIN COMPATIBILITY TOLERANCE FOR HYBRID BEAMS             1.000E-05
     TRANS. SHEAR STRAIN COMPATIBILITY TOLERANCE FOR HYBRID BEAMS      1.000E-05
     SOFT CONTACT CONSTRAINT COMPATIBILITY TOLERANCE FOR P>P0          5.000E-03
     SOFT CONTACT CONSTRAINT COMPATIBILITY TOLERANCE FOR P=0.0         0.100    
     CONTACT FORCE ERROR TOLERANCE FOR CONVERT SDI=YES                 1.00    
     DISPLACEMENT COMPATIBILITY TOLERANCE FOR DCOUP ELEMENTS           1.000E-05
     ROTATION COMPATIBILITY TOLERANCE FOR DCOUP ELEMENTS               1.000E-05

 EQUILIBRIUM WILL BE CHECKED FOR SEVERE DISCONTINUITY ITERATIONS

 TIME INCREMENTATION CONTROL PARAMETERS:
     FIRST EQUILIBRIUM ITERATION FOR CONSECUTIVE DIVERGENCE CHECK              4
     EQUILIBRIUM ITERATION AT WHICH LOG. CONVERGENCE RATE CHECK BEGINS         8
     EQUILIBRIUM ITERATION AFTER WHICH ALTERNATE RESIDUAL IS USED              9
     MAXIMUM EQUILIBRIUM ITERATIONS ALLOWED                                   16
     EQUILIBRIUM ITERATION COUNT FOR CUT-BACK IN NEXT INCREMENT               10
     MAXIMUM EQUILIB. ITERS IN TWO INCREMENTS FOR TIME INCREMENT INCREASE      4
     MAXIMUM ITERATIONS FOR SEVERE DISCONTINUITIES                            50
     MAXIMUM ATTEMPTS ALLOWED IN AN INCREMENT                                  5
     MAXIMUM DISCON. ITERS IN TWO INCREMENTS FOR TIME INCREMENT INCREASE      50
     MAXIMUM CONTACT AUGMENTATIONS FOR *SURFACE BEHAVIOR,AUGMENTED LAGRANGE   50
     CONSECUTIVE INCS MEETING TIME INTEG. TOL. FOR TIME INC. INCREASE          3
     CUT-BACK FACTOR AFTER DIVERGENCE                                 0.2500    
     CUT-BACK FACTOR FOR TOO SLOW CONVERGENCE                         0.5000    
     CUT-BACK FACTOR AFTER TOO MANY EQUILIBRIUM ITERATIONS            0.7500    
     CUT-BACK FACTOR AFTER TOO MANY SEVERE DISCONTINUITY ITERATIONS   0.2500    
     CUT-BACK FACTOR AFTER PROBLEMS IN ELEMENT ASSEMBLY               0.2500    
     INCREASE FACTOR AFTER TWO INCREMENTS THAT CONVERGE QUICKLY        1.500    
     MAX. TIME INCREMENT INCREASE FACTOR ALLOWED                       1.500    
     MAX. TIME INCREMENT INCREASE FACTOR ALLOWED (DYNAMICS)            1.250    
     MAX. TIME INCREMENT INCREASE FACTOR ALLOWED (DIFFUSION)           2.000    
     MINIMUM TIME INCREMENT RATIO FOR EXTRAPOLATION TO OCCUR          0.1000    
     CUT-BACK FACTOR WHEN TIME INTEGRATION ACCURACY TOL. EXCEEDED     0.8500    
     MAX. RATIO OF TIME INTEG. MEASURE TO TOL. FOR TIME INC. INCREASE 0.7500    
     INCREASE FACTOR FOR TIME INCREMENT WHEN POSSIBLE                 0.8000    
     MIN. TIME INC. INCREASE FACTOR IN LINEAR TRANSIENT PROBLEMS      0.9500    
     MAX. RATIO OF TIME INCREMENT TO STABILITY LIMIT                   1.000    
     FRACTION OF STABILITY LIMIT FOR NEW TIME INCREMENT               0.9500    
     TIME INCREMENT INCREASE FACTOR BEFORE A TIME POINT                1.000    
     GLOBAL STABILIZATION CONTROL IS NOT USED

          PRINT OF INCREMENT NUMBER, TIME, ETC., EVERY    1  INCREMENTS

     THE MAXIMUM NUMBER OF INCREMENTS IN THIS STEP IS                 1000000

          LARGE DISPLACEMENT THEORY WILL BE USED

          UNSYMMETRIC MATRIX STORAGE AND SOLUTION WILL BE USED

     LINEAR EXTRAPOLATION WILL BE USED

     CHARACTERISTIC ELEMENT LENGTH     2.133E-04

     DETAILS REGARDING ACTUAL SOLUTION WAVEFRONT REQUESTED

     DETAILED OUTPUT OF DIAGNOSTICS TO DATABASE REQUESTED

     PRINT OF INCREMENT NUMBER, TIME, ETC., TO THE MESSAGE FILE EVERY     1  INCREMENTS

     ELEMENT OPERATIONS WILL BE CARRIED OUT IN PARALLEL USING   8 THREADS ON 1 DOMAIN

     COLLECTING STEP CONSTRAINT INFORMATION FOR OVERCONSTRAINT CHECKS


  INCREMENT     1 STARTS. ATTEMPT NUMBER  1, TIME INCREMENT   5.45    
 
     INITIAL ELEMENT LOAD BALANCE
            DOMAIN    1     THREAD    NUMBER OF ELEMENTS
                              1            8312
                              2            8544
                              3            8474
                              4            8520
                              5            8120
                              6            8440
                              7            8488
                              8            8576
 
	UNSYMMETRIC NEW DIRECT SPARSE SOLVER RUNNING ON
 	1 HOST x 1 MPI RANK PER HOST x 8 THREADS PER RANK
        NUMBER OF EQUATIONS:  210375
        NUMBER OF RHS:        1
        NUMBER OF FLOPS:      5.219e+11
        SOLVER ELAPSED TIME:  2.5s

               CONVERGENCE CHECKS FOR EQUILIBRIUM ITERATION     1


 AVERAGE FORCE                      3.201E-02   TIME AVG. FORCE       3.201E-02
 LARGEST SCALED RESIDUAL FORCE      1.394E-11   AT NODE         56   DOF  2
   INSTANCE: NDBR6                                                                           
  CORRESPONDING RESIDUAL FORCE      1.394E-11
 LARGEST INCREMENT OF DISP.         1.363E-05   AT NODE      40492   DOF  2
   INSTANCE: NDBR6                                                                           
 LARGEST CORRECTION TO DISP.        1.363E-05   AT NODE      40492   DOF  2
   INSTANCE: NDBR6                                                                           
          THE FORCE     EQUILIBRIUM RESPONSE WAS LINEAR IN THIS INCREMENT

 AVERAGE HEAT FLUX                  3.945E-03   TIME AVG. HEAT FLUX   3.945E-03
 LARGEST RESIDUAL HEAT FLUX         3.469E-11   AT NODE         72   DOF 11
   INSTANCE: NDBR6                                                                           
 LARGEST INCREMENT OF TEMP.         1.661E-06   AT NODE        199   DOF 11
   INSTANCE: NDBR6                                                                           
 LARGEST CORRECTION TO TEMP.        1.661E-06   AT NODE        199   DOF 11
   INSTANCE: NDBR6                                                                           
          THE HEAT FLUX EQUILIBRIUM RESPONSE WAS LINEAR IN THIS INCREMENT

 MAXIMUM NON-PRESCRIBED INCREMENT IN TEMPERATURE IS   1.661E-06

 ITERATION SUMMARY FOR THE INCREMENT:   1 TOTAL ITERATIONS, OF WHICH
   0 ARE SEVERE DISCONTINUITY ITERATIONS AND  1 ARE EQUILIBRIUM ITERATIONS.

 TIME INCREMENT COMPLETED   5.45    ,  FRACTION OF STEP COMPLETED  1.000E-02
 STEP TIME COMPLETED        5.45    ,  TOTAL TIME COMPLETED        7.205E+03


  INCREMENT     2 STARTS. ATTEMPT NUMBER  1, TIME INCREMENT   5.45    
 
	UNSYMMETRIC NEW DIRECT SPARSE SOLVER RUNNING ON
 	1 HOST x 1 MPI RANK PER HOST x 8 THREADS PER RANK
        NUMBER OF EQUATIONS:  210375
        NUMBER OF RHS:        1
        NUMBER OF FLOPS:      5.219e+11
        SOLVER ELAPSED TIME:  2.6s

               CONVERGENCE CHECKS FOR EQUILIBRIUM ITERATION     1


 AVERAGE FORCE                      0.150       TIME AVG. FORCE       9.082E-02
 LARGEST SCALED RESIDUAL FORCE     -3.566E-12   AT NODE      40793   DOF  2
   INSTANCE: NDBR6                                                                           
  CORRESPONDING RESIDUAL FORCE     -3.566E-12
 LARGEST INCREMENT OF DISP.         1.363E-05   AT NODE      40492   DOF  2
   INSTANCE: NDBR6                                                                           
 LARGEST CORRECTION TO DISP.       -1.756E-17   AT NODE       7879   DOF  1
   INSTANCE: NDBR6                                                                           
          THE FORCE     EQUILIBRIUM RESPONSE WAS LINEAR IN THIS INCREMENT

 AVERAGE HEAT FLUX                  2.697E-02   TIME AVG. HEAT FLUX   1.546E-02
 LARGEST RESIDUAL HEAT FLUX        -5.455E-07   AT NODE      41076   DOF 12
   INSTANCE: NDBR6                                                                           
 LARGEST INCREMENT OF TEMP.         1.519E-03   AT NODE       1966   DOF 11
   INSTANCE: NDBR6                                                                           
 LARGEST CORRECTION TO TEMP.        1.519E-03   AT NODE       1966   DOF 11
   INSTANCE: NDBR6                                                                           
 ESTIMATE OF TEMP.    CORRECTION    6.091E-11
 HEAT FLUX EQUILIB. ACCEPTED BASED ON SMALL RESIDUAL AND ESTIMATED CORRECTION

 MAXIMUM NON-PRESCRIBED INCREMENT IN TEMPERATURE IS   1.519E-03
          TIME INCREMENT MAY NOW INCREASE TO     5.45    

 ITERATION SUMMARY FOR THE INCREMENT:   1 TOTAL ITERATIONS, OF WHICH
   0 ARE SEVERE DISCONTINUITY ITERATIONS AND  1 ARE EQUILIBRIUM ITERATIONS.

 TIME INCREMENT COMPLETED   5.45    ,  FRACTION OF STEP COMPLETED  2.000E-02
 STEP TIME COMPLETED        10.9    ,  TOTAL TIME COMPLETED        7.211E+03


  INCREMENT     3 STARTS. ATTEMPT NUMBER  1, TIME INCREMENT   5.45    
 
	UNSYMMETRIC NEW DIRECT SPARSE SOLVER RUNNING ON
 	1 HOST x 1 MPI RANK PER HOST x 8 THREADS PER RANK
        NUMBER OF EQUATIONS:  210375
        NUMBER OF RHS:        1
        NUMBER OF FLOPS:      5.219e+11
        SOLVER ELAPSED TIME:  2.6s

               CONVERGENCE CHECKS FOR EQUILIBRIUM ITERATION     1


 AVERAGE FORCE                      0.224       TIME AVG. FORCE       0.135    
 LARGEST SCALED RESIDUAL FORCE     -3.319E-12   AT NODE      40790   DOF  2
   INSTANCE: NDBR6                                                                           
  CORRESPONDING RESIDUAL FORCE     -3.319E-12
 LARGEST INCREMENT OF DISP.         1.363E-05   AT NODE      40492   DOF  2
   INSTANCE: NDBR6                                                                           
 LARGEST CORRECTION TO DISP.        1.275E-12   AT NODE      31790   DOF  2
   INSTANCE: NDBR6                                                                           
          THE FORCE     EQUILIBRIUM RESPONSE WAS LINEAR IN THIS INCREMENT

 AVERAGE HEAT FLUX                  5.191E-02   TIME AVG. HEAT FLUX   2.761E-02
 LARGEST RESIDUAL HEAT FLUX        -2.075E-06   AT NODE      41076   DOF 12
   INSTANCE: NDBR6                                                                           
 LARGEST INCREMENT OF TEMP.         2.387E-03   AT NODE       1966   DOF 11
   INSTANCE: NDBR6                                                                           
 LARGEST CORRECTION TO TEMP.       -9.055E-04   AT NODE      32759   DOF 11
   INSTANCE: NDBR6                                                                           
 ESTIMATE OF TEMP.    CORRECTION   -1.444E-10
 HEAT FLUX EQUILIB. ACCEPTED BASED ON SMALL RESIDUAL AND ESTIMATED CORRECTION

 MAXIMUM NON-PRESCRIBED INCREMENT IN TEMPERATURE IS   2.387E-03

 ITERATION SUMMARY FOR THE INCREMENT:   1 TOTAL ITERATIONS, OF WHICH
   0 ARE SEVERE DISCONTINUITY ITERATIONS AND  1 ARE EQUILIBRIUM ITERATIONS.

 TIME INCREMENT COMPLETED   5.45    ,  FRACTION OF STEP COMPLETED  3.000E-02
 STEP TIME COMPLETED        16.4    ,  TOTAL TIME COMPLETED        7.216E+03


  INCREMENT     4 STARTS. ATTEMPT NUMBER  1, TIME INCREMENT   5.45    
 
	UNSYMMETRIC NEW DIRECT SPARSE SOLVER RUNNING ON
 	1 HOST x 1 MPI RANK PER HOST x 8 THREADS PER RANK
        NUMBER OF EQUATIONS:  210375
        NUMBER OF RHS:        1
        NUMBER OF FLOPS:      5.219e+11
        SOLVER ELAPSED TIME:  2.6s

               CONVERGENCE CHECKS FOR EQUILIBRIUM ITERATION     1


 AVERAGE FORCE                      0.299       TIME AVG. FORCE       0.176    
 LARGEST SCALED RESIDUAL FORCE     -3.406E-12   AT NODE      40756   DOF  2
   INSTANCE: NDBR6                                                                           
  CORRESPONDING RESIDUAL FORCE     -3.406E-12
 LARGEST INCREMENT OF DISP.         1.363E-05   AT NODE      40492   DOF  2
   INSTANCE: NDBR6                                                                           
 LARGEST CORRECTION TO DISP.        4.252E-12   AT NODE      31790   DOF  2
   INSTANCE: NDBR6                                                                           
          THE FORCE     EQUILIBRIUM RESPONSE WAS LINEAR IN THIS INCREMENT

 AVERAGE HEAT FLUX                  7.725E-02   TIME AVG. HEAT FLUX   4.002E-02
 LARGEST RESIDUAL HEAT FLUX        -4.459E-06   AT NODE      41076   DOF 12
   INSTANCE: NDBR6                                                                           
 LARGEST INCREMENT OF TEMP.         2.933E-03   AT NODE       1966   DOF 11
   INSTANCE: NDBR6                                                                           
 LARGEST CORRECTION TO TEMP.       -6.281E-04   AT NODE      32759   DOF 11
   INSTANCE: NDBR6                                                                           
 ESTIMATE OF TEMP.    CORRECTION   -2.240E-10
 HEAT FLUX EQUILIB. ACCEPTED BASED ON SMALL RESIDUAL AND ESTIMATED CORRECTION

 MAXIMUM NON-PRESCRIBED INCREMENT IN TEMPERATURE IS   2.933E-03

 ITERATION SUMMARY FOR THE INCREMENT:   1 TOTAL ITERATIONS, OF WHICH
   0 ARE SEVERE DISCONTINUITY ITERATIONS AND  1 ARE EQUILIBRIUM ITERATIONS.

 TIME INCREMENT COMPLETED   5.45    ,  FRACTION OF STEP COMPLETED  4.000E-02
 STEP TIME COMPLETED        21.8    ,  TOTAL TIME COMPLETED        7.222E+03


  INCREMENT     5 STARTS. ATTEMPT NUMBER  1, TIME INCREMENT   5.45    
 
	UNSYMMETRIC NEW DIRECT SPARSE SOLVER RUNNING ON
 	1 HOST x 1 MPI RANK PER HOST x 8 THREADS PER RANK
        NUMBER OF EQUATIONS:  210375
        NUMBER OF RHS:        1
        NUMBER OF FLOPS:      5.219e+11
        SOLVER ELAPSED TIME:  2.6s

               CONVERGENCE CHECKS FOR EQUILIBRIUM ITERATION     1


 AVERAGE FORCE                      0.374       TIME AVG. FORCE       0.216    
 LARGEST SCALED RESIDUAL FORCE     -3.270E-12   AT NODE      40728   DOF  2
   INSTANCE: NDBR6                                                                           
  CORRESPONDING RESIDUAL FORCE     -3.270E-12
 LARGEST INCREMENT OF DISP.         1.363E-05   AT NODE      40492   DOF  2
   INSTANCE: NDBR6                                                                           
 LARGEST CORRECTION TO DISP.        6.813E-12   AT NODE      31790   DOF  2
   INSTANCE: NDBR6                                                                           
          THE FORCE     EQUILIBRIUM RESPONSE WAS LINEAR IN THIS INCREMENT

 AVERAGE HEAT FLUX                  0.103       TIME AVG. HEAT FLUX   5.265E-02
 LARGEST RESIDUAL HEAT FLUX        -7.594E-06   AT NODE      41076   DOF 12
   INSTANCE: NDBR6                                                                           
 LARGEST INCREMENT OF TEMP.        -3.346E-03   AT NODE      32759   DOF 11
   INSTANCE: NDBR6                                                                           
 LARGEST CORRECTION TO TEMP.       -4.534E-04   AT NODE      32759   DOF 11
   INSTANCE: NDBR6                                                                           
 ESTIMATE OF TEMP.    CORRECTION   -2.860E-10
 HEAT FLUX EQUILIB. ACCEPTED BASED ON SMALL RESIDUAL AND ESTIMATED CORRECTION

 MAXIMUM NON-PRESCRIBED INCREMENT IN TEMPERATURE IS  -3.346E-03

 ITERATION SUMMARY FOR THE INCREMENT:   1 TOTAL ITERATIONS, OF WHICH
   0 ARE SEVERE DISCONTINUITY ITERATIONS AND  1 ARE EQUILIBRIUM ITERATIONS.

 TIME INCREMENT COMPLETED   5.45    ,  FRACTION OF STEP COMPLETED  5.000E-02
 STEP TIME COMPLETED        27.2    ,  TOTAL TIME COMPLETED        7.227E+03


  INCREMENT     6 STARTS. ATTEMPT NUMBER  1, TIME INCREMENT   5.45    
 
	UNSYMMETRIC NEW DIRECT SPARSE SOLVER RUNNING ON
 	1 HOST x 1 MPI RANK PER HOST x 8 THREADS PER RANK
        NUMBER OF EQUATIONS:  210375
        NUMBER OF RHS:        1
        NUMBER OF FLOPS:      5.219e+11
        SOLVER ELAPSED TIME:  2.5s

               CONVERGENCE CHECKS FOR EQUILIBRIUM ITERATION     1


 AVERAGE FORCE                      0.449       TIME AVG. FORCE       0.255    
 LARGEST SCALED RESIDUAL FORCE      3.524E-12   AT NODE      40785   DOF  2
   INSTANCE: NDBR6                                                                           
  CORRESPONDING RESIDUAL FORCE      3.524E-12
 LARGEST INCREMENT OF DISP.         1.363E-05   AT NODE      40492   DOF  2
   INSTANCE: NDBR6                                                                           
 LARGEST CORRECTION TO DISP.        9.389E-12   AT NODE      31790   DOF  2
   INSTANCE: NDBR6                                                                           
          THE FORCE     EQUILIBRIUM RESPONSE WAS LINEAR IN THIS INCREMENT

 AVERAGE HEAT FLUX                  0.130       TIME AVG. HEAT FLUX   6.551E-02
 LARGEST RESIDUAL HEAT FLUX        -1.140E-05   AT NODE      41076   DOF 12
   INSTANCE: NDBR6                                                                           
 LARGEST INCREMENT OF TEMP.        -3.686E-03   AT NODE      32759   DOF 11
   INSTANCE: NDBR6                                                                           
 LARGEST CORRECTION TO TEMP.       -3.403E-04   AT NODE      32759   DOF 11
   INSTANCE: NDBR6                                                                           
 ESTIMATE OF TEMP.    CORRECTION   -3.338E-10
 HEAT FLUX EQUILIB. ACCEPTED BASED ON SMALL RESIDUAL AND ESTIMATED CORRECTION

 MAXIMUM NON-PRESCRIBED INCREMENT IN TEMPERATURE IS  -3.686E-03

 ITERATION SUMMARY FOR THE INCREMENT:   1 TOTAL ITERATIONS, OF WHICH
   0 ARE SEVERE DISCONTINUITY ITERATIONS AND  1 ARE EQUILIBRIUM ITERATIONS.

 TIME INCREMENT COMPLETED   5.45    ,  FRACTION OF STEP COMPLETED  6.000E-02
 STEP TIME COMPLETED        32.7    ,  TOTAL TIME COMPLETED        7.233E+03


  INCREMENT     7 STARTS. ATTEMPT NUMBER  1, TIME INCREMENT   5.45    
 
	UNSYMMETRIC NEW DIRECT SPARSE SOLVER RUNNING ON
 	1 HOST x 1 MPI RANK PER HOST x 8 THREADS PER RANK
        NUMBER OF EQUATIONS:  210375
        NUMBER OF RHS:        1
        NUMBER OF FLOPS:      5.219e+11
        SOLVER ELAPSED TIME:  2.5s

               CONVERGENCE CHECKS FOR EQUILIBRIUM ITERATION     1


 AVERAGE FORCE                      0.524       TIME AVG. FORCE       0.293    
 LARGEST SCALED RESIDUAL FORCE     -3.098E-12   AT NODE      40775   DOF  2
   INSTANCE: NDBR6                                                                           
  CORRESPONDING RESIDUAL FORCE     -3.098E-12
 LARGEST INCREMENT OF DISP.         1.363E-05   AT NODE      40492   DOF  2
   INSTANCE: NDBR6                                                                           
 LARGEST CORRECTION TO DISP.        1.199E-11   AT NODE      31790   DOF  2
   INSTANCE: NDBR6                                                                           
          THE FORCE     EQUILIBRIUM RESPONSE WAS LINEAR IN THIS INCREMENT

 AVERAGE HEAT FLUX                  0.157       TIME AVG. HEAT FLUX   7.859E-02
 LARGEST RESIDUAL HEAT FLUX        -1.582E-05   AT NODE      41076   DOF 12
   INSTANCE: NDBR6                                                                           
 LARGEST INCREMENT OF TEMP.        -3.951E-03   AT NODE      32759   DOF 11
   INSTANCE: NDBR6                                                                           
 LARGEST CORRECTION TO TEMP.       -2.648E-04   AT NODE      32759   DOF 11
   INSTANCE: NDBR6                                                                           
 ESTIMATE OF TEMP.    CORRECTION   -3.724E-10
 HEAT FLUX EQUILIB. ACCEPTED BASED ON SMALL RESIDUAL AND ESTIMATED CORRECTION

 MAXIMUM NON-PRESCRIBED INCREMENT IN TEMPERATURE IS  -3.951E-03

 ITERATION SUMMARY FOR THE INCREMENT:   1 TOTAL ITERATIONS, OF WHICH
   0 ARE SEVERE DISCONTINUITY ITERATIONS AND  1 ARE EQUILIBRIUM ITERATIONS.

 TIME INCREMENT COMPLETED   5.45    ,  FRACTION OF STEP COMPLETED  7.000E-02
 STEP TIME COMPLETED        38.2    ,  TOTAL TIME COMPLETED        7.238E+03


  INCREMENT     8 STARTS. ATTEMPT NUMBER  1, TIME INCREMENT   5.45    
 
	UNSYMMETRIC NEW DIRECT SPARSE SOLVER RUNNING ON
 	1 HOST x 1 MPI RANK PER HOST x 8 THREADS PER RANK
        NUMBER OF EQUATIONS:  210375
        NUMBER OF RHS:        1
        NUMBER OF FLOPS:      5.219e+11
