1

   Abaqus 2023.HF4                                  Date 21-May-2024   Time 15:28:42
   For use by AALTO UNIVERSITY under license from Dassault Systemes or its subsidiary.

                                                                                 
                                                                                 
 STEP    1     INCREMENT     1     STEP TIME    0.00    


                        S T E P       1     C O U P L E D - T E M P E R A T U R E - D I S P L A C E M E N T   A N A L Y S I S


                                                                                          

          FIXED TIME INCREMENTS
          TIME INCREMENT IS                                    1.000E+03
          TIME PERIOD IS                                       1.000E+05

          CREEP AND SWELLING EFFECTS ARE OMITTED IN THIS STEP
          THE RATE DEPENDENCY WILL BE CONSIDERED IN THIS STEP

          CREEP AND SWELLING EFFECTS WILL BE IGNORED.

 CONVERGENCE TOLERANCE PARAMETERS FOR FORCE    
     CRITERION FOR RESIDUAL FORCE     FOR A NONLINEAR PROBLEM          5.000E-03
     CRITERION FOR DISP.    CORRECTION IN A NONLINEAR PROBLEM          1.000E-02
     INITIAL VALUE OF TIME AVERAGE FORCE                               1.000E-02
     AVERAGE FORCE     IS TIME AVERAGE FORCE    
     ALTERNATE CRIT. FOR RESIDUAL FORCE     FOR A NONLINEAR PROBLEM    2.000E-02
     CRITERION FOR ZERO FORCE     RELATIVE TO TIME AVRG. FORCE         1.000E-05
     CRITERION FOR RESIDUAL FORCE     WHEN THERE IS ZERO FLUX          1.000E-05
     CRITERION FOR DISP.    CORRECTION WHEN THERE IS ZERO FLUX         1.000E-03
     CRITERION FOR RESIDUAL FORCE     FOR A LINEAR INCREMENT           1.000E-08
     FIELD CONVERSION RATIO                                             1.00    
     CRITERION FOR ZERO FORCE     REL. TO TIME AVRG. MAX. FORCE        1.000E-05
     CRITERION FOR ZERO DISP.    RELATIVE TO CHARACTERISTIC LENGTH     1.000E-08

 CONVERGENCE TOLERANCE PARAMETERS FOR HEAT FLUX
     CRITERION FOR RESIDUAL HEAT FLUX FOR A NONLINEAR PROBLEM          5.000E-03
     CRITERION FOR TEMP.    CORRECTION IN A NONLINEAR PROBLEM          1.000E-02
     INITIAL VALUE OF TIME AVERAGE HEAT FLUX                           1.000E-02
     AVERAGE HEAT FLUX IS TIME AVERAGE HEAT FLUX
     ALTERNATE CRIT. FOR RESIDUAL HEAT FLUX FOR A NONLINEAR PROBLEM    2.000E-02
     CRITERION FOR ZERO HEAT FLUX RELATIVE TO TIME AVRG. HEAT FLUX     1.000E-05
     CRITERION FOR RESIDUAL HEAT FLUX WHEN THERE IS ZERO FLUX          1.000E-05
     CRITERION FOR TEMP.    CORRECTION WHEN THERE IS ZERO FLUX         1.000E-03
     CRITERION FOR RESIDUAL HEAT FLUX FOR A LINEAR INCREMENT           1.000E-08
     FIELD CONVERSION RATIO                                             1.00    
     CRITERION FOR ZERO HEAT FLUX REL. TO TIME AVRG. MAX. HEAT FLUX    1.000E-05

     VOLUMETRIC STRAIN COMPATIBILITY TOLERANCE FOR HYBRID SOLIDS       1.000E-05
     AXIAL STRAIN COMPATIBILITY TOLERANCE FOR HYBRID BEAMS             1.000E-05
     TRANS. SHEAR STRAIN COMPATIBILITY TOLERANCE FOR HYBRID BEAMS      1.000E-05
     SOFT CONTACT CONSTRAINT COMPATIBILITY TOLERANCE FOR P>P0          5.000E-03
     SOFT CONTACT CONSTRAINT COMPATIBILITY TOLERANCE FOR P=0.0         0.100    
     CONTACT FORCE ERROR TOLERANCE FOR CONVERT SDI=YES                 1.00    
     DISPLACEMENT COMPATIBILITY TOLERANCE FOR DCOUP ELEMENTS           1.000E-05
     ROTATION COMPATIBILITY TOLERANCE FOR DCOUP ELEMENTS               1.000E-05

 EQUILIBRIUM WILL BE CHECKED FOR SEVERE DISCONTINUITY ITERATIONS

 ITERATION CONTROL PARAMETERS:
     FIRST EQUILIBRIUM ITERATION FOR CONSECUTIVE DIVERGENCE CHECK              4
     EQUILIBRIUM ITERATION AFTER WHICH ALTERNATE RESIDUAL IS USED              9
     MAXIMUM EQUILIBRIUM ITERATIONS ALLOWED                                   16
     MAXIMUM ITERATIONS FOR SEVERE DISCONTINUITIES                            12
     GLOBAL STABILIZATION CONTROL IS NOT USED

          PRINT OF INCREMENT NUMBER, TIME, ETC., EVERY    1  INCREMENTS

     THE MAXIMUM NUMBER OF INCREMENTS IN THIS STEP IS                    1000

          LARGE DISPLACEMENT THEORY WILL BE USED

          UNSYMMETRIC MATRIX STORAGE AND SOLUTION WILL BE USED

     LINEAR EXTRAPOLATION WILL BE USED

     CHARACTERISTIC ELEMENT LENGTH     8.388E-04

     DETAILS REGARDING ACTUAL SOLUTION WAVEFRONT REQUESTED

     DETAILED OUTPUT OF DIAGNOSTICS TO DATABASE REQUESTED

     PRINT OF INCREMENT NUMBER, TIME, ETC., TO THE MESSAGE FILE EVERY     1  INCREMENTS

     ELEMENT OPERATIONS WILL BE CARRIED OUT IN PARALLEL USING   4 THREADS ON 1 DOMAIN

     PARALLEL CONTACT TRACKING ENABLED


     COLLECTING MODEL CONSTRAINT INFORMATION FOR OVERCONSTRAINT CHECKS

     COLLECTING STEP CONSTRAINT INFORMATION FOR OVERCONSTRAINT CHECKS


  INCREMENT     1 STARTS. ATTEMPT NUMBER  1, TIME INCREMENT  1.000E+03
 
     INITIAL ELEMENT LOAD BALANCE
            DOMAIN    1     THREAD    NUMBER OF ELEMENTS
                              1            1193
                              2            1248
                              3            832
                              4            1224
 
	UNSYMMETRIC NEW DIRECT SPARSE SOLVER RUNNING ON
 	1 HOST x 1 MPI RANK PER HOST x 4 THREADS PER RANK
        NUMBER OF EQUATIONS:  32172
        NUMBER OF RHS:        1
        NUMBER OF FLOPS:      1.373e+09
        SOLVER ELAPSED TIME:  31ms

 ***WARNING: SOLVER PROBLEM.  ZERO PIVOT WHEN PROCESSING NODE 589 INSTANCE 
             ELASTIC-PLASTIC-PLATE-1 D.O.F. 11
  Typically a zero pivot is associated with an overconstraint in the model. 
 However, Abaqus was not able to identify any chains of constraints that might 
 lead to an overconstraint at this node. This suggests that the model might be 
 in fact insufficiently constrained in this particular degree of freedom. 
 Please check the constraints used in this model. 


 ***WARNING: SOLVER PROBLEM.  ZERO PIVOT WHEN PROCESSING NODE 528 INSTANCE 
             ELASTIC-PLASTIC-PLATE-1 D.O.F. 11
  Typically a zero pivot is associated with an overconstraint in the model. 
 However, Abaqus was not able to identify any chains of constraints that might 
 lead to an overconstraint at this node. This suggests that the model might be 
 in fact insufficiently constrained in this particular degree of freedom. 
 Please check the constraints used in this model. 


 ***WARNING: SOLVER PROBLEM.  ZERO PIVOT WHEN PROCESSING NODE 587 INSTANCE 
             ELASTIC-PLASTIC-PLATE-1 D.O.F. 11
  Typically a zero pivot is associated with an overconstraint in the model. 
 However, Abaqus was not able to identify any chains of constraints that might 
 lead to an overconstraint at this node. This suggests that the model might be 
 in fact insufficiently constrained in this particular degree of freedom. 
 Please check the constraints used in this model. 


 ***WARNING: SOLVER PROBLEM.  ZERO PIVOT WHEN PROCESSING NODE 588 INSTANCE 
             ELASTIC-PLASTIC-PLATE-1 D.O.F. 11
  Typically a zero pivot is associated with an overconstraint in the model. 
 However, Abaqus was not able to identify any chains of constraints that might 
 lead to an overconstraint at this node. This suggests that the model might be 
 in fact insufficiently constrained in this particular degree of freedom. 
 Please check the constraints used in this model. 


 ***WARNING: SOLVER PROBLEM.  ZERO PIVOT WHEN PROCESSING NODE 531 INSTANCE 
             ELASTIC-PLASTIC-PLATE-1 D.O.F. 11
  Typically a zero pivot is associated with an overconstraint in the model. 
 However, Abaqus was not able to identify any chains of constraints that might 
 lead to an overconstraint at this node. This suggests that the model might be 
 in fact insufficiently constrained in this particular degree of freedom. 
 Please check the constraints used in this model. 


 ***WARNING: SOLVER PROBLEM.  ZERO PIVOT WHEN PROCESSING NODE 590 INSTANCE 
             ELASTIC-PLASTIC-PLATE-1 D.O.F. 11
  Typically a zero pivot is associated with an overconstraint in the model. 
 However, Abaqus was not able to identify any chains of constraints that might 
 lead to an overconstraint at this node. This suggests that the model might be 
 in fact insufficiently constrained in this particular degree of freedom. 
 Please check the constraints used in this model. 


 ***WARNING: SOLVER PROBLEM.  ZERO PIVOT WHEN PROCESSING NODE 529 INSTANCE 
             ELASTIC-PLASTIC-PLATE-1 D.O.F. 11
  Typically a zero pivot is associated with an overconstraint in the model. 
 However, Abaqus was not able to identify any chains of constraints that might 
 lead to an overconstraint at this node. This suggests that the model might be 
 in fact insufficiently constrained in this particular degree of freedom. 
 Please check the constraints used in this model. 


 ***WARNING: SOLVER PROBLEM.  ZERO PIVOT WHEN PROCESSING NODE 530 INSTANCE 
             ELASTIC-PLASTIC-PLATE-1 D.O.F. 11
  Typically a zero pivot is associated with an overconstraint in the model. 
 However, Abaqus was not able to identify any chains of constraints that might 
 lead to an overconstraint at this node. This suggests that the model might be 
 in fact insufficiently constrained in this particular degree of freedom. 
 Please check the constraints used in this model. 


 ***WARNING: SOLVER PROBLEM.  ZERO PIVOT WHEN PROCESSING NODE 410 INSTANCE 
             ELASTIC-PLASTIC-PLATE-1 D.O.F. 11
  Typically a zero pivot is associated with an overconstraint in the model. 
 However, Abaqus was not able to identify any chains of constraints that might 
 lead to an overconstraint at this node. This suggests that the model might be 
 in fact insufficiently constrained in this particular degree of freedom. 
 Please check the constraints used in this model. 


 ***WARNING: SOLVER PROBLEM.  ZERO PIVOT WHEN PROCESSING NODE 469 INSTANCE 
             ELASTIC-PLASTIC-PLATE-1 D.O.F. 11
  Typically a zero pivot is associated with an overconstraint in the model. 
 However, Abaqus was not able to identify any chains of constraints that might 
 lead to an overconstraint at this node. This suggests that the model might be 
 in fact insufficiently constrained in this particular degree of freedom. 
 Please check the constraints used in this model. 


 ***WARNING: SOLVER PROBLEM.  ZERO PIVOT WHEN PROCESSING NODE 470 INSTANCE 
             ELASTIC-PLASTIC-PLATE-1 D.O.F. 11
  Typically a zero pivot is associated with an overconstraint in the model. 
 However, Abaqus was not able to identify any chains of constraints that might 
 lead to an overconstraint at this node. This suggests that the model might be 
 in fact insufficiently constrained in this particular degree of freedom. 
 Please check the constraints used in this model. 


 ***WARNING: SOLVER PROBLEM.  ZERO PIVOT WHEN PROCESSING NODE 413 INSTANCE 
             ELASTIC-PLASTIC-PLATE-1 D.O.F. 11
  Typically a zero pivot is associated with an overconstraint in the model. 
 However, Abaqus was not able to identify any chains of constraints that might 
 lead to an overconstraint at this node. This suggests that the model might be 
 in fact insufficiently constrained in this particular degree of freedom. 
 Please check the constraints used in this model. 


 ***WARNING: SOLVER PROBLEM.  ZERO PIVOT WHEN PROCESSING NODE 471 INSTANCE 
             ELASTIC-PLASTIC-PLATE-1 D.O.F. 11
  Typically a zero pivot is associated with an overconstraint in the model. 
 However, Abaqus was not able to identify any chains of constraints that might 
 lead to an overconstraint at this node. This suggests that the model might be 
 in fact insufficiently constrained in this particular degree of freedom. 
 Please check the constraints used in this model. 


 ***WARNING: SOLVER PROBLEM.  ZERO PIVOT WHEN PROCESSING NODE 472 INSTANCE 
             ELASTIC-PLASTIC-PLATE-1 D.O.F. 11
  Typically a zero pivot is associated with an overconstraint in the model. 
 However, Abaqus was not able to identify any chains of constraints that might 
 lead to an overconstraint at this node. This suggests that the model might be 
 in fact insufficiently constrained in this particular degree of freedom. 
 Please check the constraints used in this model. 


 ***WARNING: SOLVER PROBLEM.  ZERO PIVOT WHEN PROCESSING NODE 411 INSTANCE 
             ELASTIC-PLASTIC-PLATE-1 D.O.F. 11
  Typically a zero pivot is associated with an overconstraint in the model. 
 However, Abaqus was not able to identify any chains of constraints that might 
 lead to an overconstraint at this node. This suggests that the model might be 
 in fact insufficiently constrained in this particular degree of freedom. 
 Please check the constraints used in this model. 


 ***WARNING: SOLVER PROBLEM.  ZERO PIVOT WHEN PROCESSING NODE 412 INSTANCE 
             ELASTIC-PLASTIC-PLATE-1 D.O.F. 11
  Typically a zero pivot is associated with an overconstraint in the model. 
 However, Abaqus was not able to identify any chains of constraints that might 
 lead to an overconstraint at this node. This suggests that the model might be 
 in fact insufficiently constrained in this particular degree of freedom. 
 Please check the constraints used in this model. 


 ***WARNING: SOLVER PROBLEM.  ZERO PIVOT WHEN PROCESSING NODE 353 INSTANCE 
             ELASTIC-PLASTIC-PLATE-1 D.O.F. 11
  Typically a zero pivot is associated with an overconstraint in the model. 
 However, Abaqus was not able to identify any chains of constraints that might 
 lead to an overconstraint at this node. This suggests that the model might be 
 in fact insufficiently constrained in this particular degree of freedom. 
 Please check the constraints used in this model. 


 ***WARNING: SOLVER PROBLEM.  ZERO PIVOT WHEN PROCESSING NODE 4063 INSTANCE 
             ELASTIC-PLASTIC-PLATE-1 D.O.F. 11
  Typically a zero pivot is associated with an overconstraint in the model. 
 However, Abaqus was not able to identify any chains of constraints that might 
 lead to an overconstraint at this node. This suggests that the model might be 
 in fact insufficiently constrained in this particular degree of freedom. 
 Please check the constraints used in this model. 


 ***WARNING: SOLVER PROBLEM.  ZERO PIVOT WHEN PROCESSING NODE 26 INSTANCE 
             ELASTIC-PLASTIC-PLATE-1 D.O.F. 11
  Typically a zero pivot is associated with an overconstraint in the model. 
 However, Abaqus was not able to identify any chains of constraints that might 
 lead to an overconstraint at this node. This suggests that the model might be 
 in fact insufficiently constrained in this particular degree of freedom. 
 Please check the constraints used in this model. 


 ***WARNING: SOLVER PROBLEM.  ZERO PIVOT WHEN PROCESSING NODE 354 INSTANCE 
             ELASTIC-PLASTIC-PLATE-1 D.O.F. 11
  Typically a zero pivot is associated with an overconstraint in the model. 
 However, Abaqus was not able to identify any chains of constraints that might 
 lead to an overconstraint at this node. This suggests that the model might be 
 in fact insufficiently constrained in this particular degree of freedom. 
 Please check the constraints used in this model. 


 ***WARNING: SOLVER PROBLEM.  ZERO PIVOT WHEN PROCESSING NODE 23 INSTANCE 
             ELASTIC-PLASTIC-PLATE-1 D.O.F. 11
  Typically a zero pivot is associated with an overconstraint in the model. 
 However, Abaqus was not able to identify any chains of constraints that might 
 lead to an overconstraint at this node. This suggests that the model might be 
 in fact insufficiently constrained in this particular degree of freedom. 
 Please check the constraints used in this model. 


 ***WARNING: SOLVER PROBLEM.  ZERO PIVOT WHEN PROCESSING NODE 3971 INSTANCE 
             ELASTIC-PLASTIC-PLATE-1 D.O.F. 11
  Typically a zero pivot is associated with an overconstraint in the model. 
 However, Abaqus was not able to identify any chains of constraints that might 
 lead to an overconstraint at this node. This suggests that the model might be 
 in fact insufficiently constrained in this particular degree of freedom. 
 Please check the constraints used in this model. 


 ***WARNING: SOLVER PROBLEM.  ZERO PIVOT WHEN PROCESSING NODE 4027 INSTANCE 
             ELASTIC-PLASTIC-PLATE-1 D.O.F. 11
  Typically a zero pivot is associated with an overconstraint in the model. 
 However, Abaqus was not able to identify any chains of constraints that might 
 lead to an overconstraint at this node. This suggests that the model might be 
 in fact insufficiently constrained in this particular degree of freedom. 
 Please check the constraints used in this model. 


 ***WARNING: SOLVER PROBLEM.  ZERO PIVOT WHEN PROCESSING NODE 4050 INSTANCE 
             ELASTIC-PLASTIC-PLATE-1 D.O.F. 11
  Typically a zero pivot is associated with an overconstraint in the model. 
 However, Abaqus was not able to identify any chains of constraints that might 
 lead to an overconstraint at this node. This suggests that the model might be 
 in fact insufficiently constrained in this particular degree of freedom. 
 Please check the constraints used in this model. 


 ***WARNING: SOLVER PROBLEM.  ZERO PIVOT WHEN PROCESSING NODE 2348 INSTANCE 
             ELASTIC-PLASTIC-PLATE-1 D.O.F. 11
  Typically a zero pivot is associated with an overconstraint in the model. 
 However, Abaqus was not able to identify any chains of constraints that might 
 lead to an overconstraint at this node. This suggests that the model might be 
 in fact insufficiently constrained in this particular degree of freedom. 
 Please check the constraints used in this model. 


 ***WARNING: SOLVER PROBLEM.  ZERO PIVOT WHEN PROCESSING NODE 3989 INSTANCE 
             ELASTIC-PLASTIC-PLATE-1 D.O.F. 11
  Typically a zero pivot is associated with an overconstraint in the model. 
 However, Abaqus was not able to identify any chains of constraints that might 
 lead to an overconstraint at this node. This suggests that the model might be 
 in fact insufficiently constrained in this particular degree of freedom. 
 Please check the constraints used in this model. 


 ***WARNING: SOLVER PROBLEM.  ZERO PIVOT WHEN PROCESSING NODE 4309 INSTANCE 
             ELASTIC-PLASTIC-PLATE-1 D.O.F. 11
  Typically a zero pivot is associated with an overconstraint in the model. 
 However, Abaqus was not able to identify any chains of constraints that might 
 lead to an overconstraint at this node. This suggests that the model might be 
 in fact insufficiently constrained in this particular degree of freedom. 
 Please check the constraints used in this model. 


 ***WARNING: SOLVER PROBLEM.  ZERO PIVOT WHEN PROCESSING NODE 24 INSTANCE 
             ELASTIC-PLASTIC-PLATE-1 D.O.F. 11
  Typically a zero pivot is associated with an overconstraint in the model. 
 However, Abaqus was not able to identify any chains of constraints that might 
 lead to an overconstraint at this node. This suggests that the model might be 
 in fact insufficiently constrained in this particular degree of freedom. 
 Please check the constraints used in this model. 


 ***WARNING: SOLVER PROBLEM.  ZERO PIVOT WHEN PROCESSING NODE 25 INSTANCE 
             ELASTIC-PLASTIC-PLATE-1 D.O.F. 11
  Typically a zero pivot is associated with an overconstraint in the model. 
 However, Abaqus was not able to identify any chains of constraints that might 
 lead to an overconstraint at this node. This suggests that the model might be 
 in fact insufficiently constrained in this particular degree of freedom. 
 Please check the constraints used in this model. 


 ***WARNING: SOLVER PROBLEM.  ZERO PIVOT WHEN PROCESSING NODE 351 INSTANCE 
             ELASTIC-PLASTIC-PLATE-1 D.O.F. 11
  Typically a zero pivot is associated with an overconstraint in the model. 
 However, Abaqus was not able to identify any chains of constraints that might 
 lead to an overconstraint at this node. This suggests that the model might be 
 in fact insufficiently constrained in this particular degree of freedom. 
 Please check the constraints used in this model. 


 ***WARNING: SOLVER PROBLEM.  ZERO PIVOT WHEN PROCESSING NODE 352 INSTANCE 
             ELASTIC-PLASTIC-PLATE-1 D.O.F. 11
  Typically a zero pivot is associated with an overconstraint in the model. 
 However, Abaqus was not able to identify any chains of constraints that might 
 lead to an overconstraint at this node. This suggests that the model might be 
 in fact insufficiently constrained in this particular degree of freedom. 
 Please check the constraints used in this model. 


 ***WARNING: SOLVER PROBLEM.  ZERO PIVOT WHEN PROCESSING NODE 2349 INSTANCE 
             ELASTIC-PLASTIC-PLATE-1 D.O.F. 11
  Typically a zero pivot is associated with an overconstraint in the model. 
 However, Abaqus was not able to identify any chains of constraints that might 
 lead to an overconstraint at this node. This suggests that the model might be 
 in fact insufficiently constrained in this particular degree of freedom. 
 Please check the constraints used in this model. 


 ***WARNING: SOLVER PROBLEM.  ZERO PIVOT WHEN PROCESSING NODE 4025 INSTANCE 
             ELASTIC-PLASTIC-PLATE-1 D.O.F. 11
  Typically a zero pivot is associated with an overconstraint in the model. 
 However, Abaqus was not able to identify any chains of constraints that might 
 lead to an overconstraint at this node. This suggests that the model might be 
 in fact insufficiently constrained in this particular degree of freedom. 
 Please check the constraints used in this model. 


 ***WARNING: SOLVER PROBLEM.  ZERO PIVOT WHEN PROCESSING NODE 4041 INSTANCE 
             ELASTIC-PLASTIC-PLATE-1 D.O.F. 11
  Typically a zero pivot is associated with an overconstraint in the model. 
 However, Abaqus was not able to identify any chains of constraints that might 
 lead to an overconstraint at this node. This suggests that the model might be 
 in fact insufficiently constrained in this particular degree of freedom. 
 Please check the constraints used in this model. 


 ***WARNING: SOLVER PROBLEM.  ZERO PIVOT WHEN PROCESSING NODE 4096 INSTANCE 
             ELASTIC-PLASTIC-PLATE-1 D.O.F. 11
  Typically a zero pivot is associated with an overconstraint in the model. 
 However, Abaqus was not able to identify any chains of constraints that might 
 lead to an overconstraint at this node. This suggests that the model might be 
 in fact insufficiently constrained in this particular degree of freedom. 
 Please check the constraints used in this model. 


 ***WARNING: SOLVER PROBLEM.  ZERO PIVOT WHEN PROCESSING NODE 28 INSTANCE 
             ELASTIC-PLASTIC-PLATE-1 D.O.F. 11
  Typically a zero pivot is associated with an overconstraint in the model. 
 However, Abaqus was not able to identify any chains of constraints that might 
 lead to an overconstraint at this node. This suggests that the model might be 
 in fact insufficiently constrained in this particular degree of freedom. 
 Please check the constraints used in this model. 


 ***WARNING: SOLVER PROBLEM.  ZERO PIVOT WHEN PROCESSING NODE 31 INSTANCE 
             ELASTIC-PLASTIC-PLATE-1 D.O.F. 11
  Typically a zero pivot is associated with an overconstraint in the model. 
 However, Abaqus was not able to identify any chains of constraints that might 
 lead to an overconstraint at this node. This suggests that the model might be 
 in fact insufficiently constrained in this particular degree of freedom. 
 Please check the constraints used in this model. 


 ***WARNING: SOLVER PROBLEM.  ZERO PIVOT WHEN PROCESSING NODE 30 INSTANCE 
             ELASTIC-PLASTIC-PLATE-1 D.O.F. 11
  Typically a zero pivot is associated with an overconstraint in the model. 
 However, Abaqus was not able to identify any chains of constraints that might 
 lead to an overconstraint at this node. This suggests that the model might be 
 in fact insufficiently constrained in this particular degree of freedom. 
 Please check the constraints used in this model. 


 ***WARNING: SOLVER PROBLEM.  ZERO PIVOT WHEN PROCESSING NODE 29 INSTANCE 
             ELASTIC-PLASTIC-PLATE-1 D.O.F. 11
  Typically a zero pivot is associated with an overconstraint in the model. 
 However, Abaqus was not able to identify any chains of constraints that might 
 lead to an overconstraint at this node. This suggests that the model might be 
 in fact insufficiently constrained in this particular degree of freedom. 
 Please check the constraints used in this model. 


 ***WARNING: SOLVER PROBLEM.  ZERO PIVOT WHEN PROCESSING NODE 359 INSTANCE 
             ELASTIC-PLASTIC-PLATE-1 D.O.F. 11
  Typically a zero pivot is associated with an overconstraint in the model. 
 However, Abaqus was not able to identify any chains of constraints that might 
 lead to an overconstraint at this node. This suggests that the model might be 
 in fact insufficiently constrained in this particular degree of freedom. 
 Please check the constraints used in this model. 


 ***WARNING: SOLVER PROBLEM.  ZERO PIVOT WHEN PROCESSING NODE 592 INSTANCE 
             ELASTIC-PLASTIC-PLATE-1 D.O.F. 11
  Typically a zero pivot is associated with an overconstraint in the model. 
 However, Abaqus was not able to identify any chains of constraints that might 
 lead to an overconstraint at this node. This suggests that the model might be 
 in fact insufficiently constrained in this particular degree of freedom. 
 Please check the constraints used in this model. 


 ***WARNING: SOLVER PROBLEM.  ZERO PIVOT WHEN PROCESSING NODE 593 INSTANCE 
             ELASTIC-PLASTIC-PLATE-1 D.O.F. 11
  Typically a zero pivot is associated with an overconstraint in the model. 
 However, Abaqus was not able to identify any chains of constraints that might 
 lead to an overconstraint at this node. This suggests that the model might be 
 in fact insufficiently constrained in this particular degree of freedom. 
 Please check the constraints used in this model. 


 ***WARNING: SOLVER PROBLEM.  ZERO PIVOT WHEN PROCESSING NODE 536 INSTANCE 
             ELASTIC-PLASTIC-PLATE-1 D.O.F. 11
  Typically a zero pivot is associated with an overconstraint in the model. 
 However, Abaqus was not able to identify any chains of constraints that might 
 lead to an overconstraint at this node. This suggests that the model might be 
 in fact insufficiently constrained in this particular degree of freedom. 
 Please check the constraints used in this model. 


 ***WARNING: SOLVER PROBLEM.  ZERO PIVOT WHEN PROCESSING NODE 594 INSTANCE 
             ELASTIC-PLASTIC-PLATE-1 D.O.F. 11
  Typically a zero pivot is associated with an overconstraint in the model. 
 However, Abaqus was not able to identify any chains of constraints that might 
 lead to an overconstraint at this node. This suggests that the model might be 
 in fact insufficiently constrained in this particular degree of freedom. 
 Please check the constraints used in this model. 


 ***WARNING: SOLVER PROBLEM.  ZERO PIVOT WHEN PROCESSING NODE 595 INSTANCE 
             ELASTIC-PLASTIC-PLATE-1 D.O.F. 11
  Typically a zero pivot is associated with an overconstraint in the model. 
 However, Abaqus was not able to identify any chains of constraints that might 
 lead to an overconstraint at this node. This suggests that the model might be 
 in fact insufficiently constrained in this particular degree of freedom. 
 Please check the constraints used in this model. 


 ***WARNING: SOLVER PROBLEM.  ZERO PIVOT WHEN PROCESSING NODE 533 INSTANCE 
             ELASTIC-PLASTIC-PLATE-1 D.O.F. 11
  Typically a zero pivot is associated with an overconstraint in the model. 
 However, Abaqus was not able to identify any chains of constraints that might 
 lead to an overconstraint at this node. This suggests that the model might be 
 in fact insufficiently constrained in this particular degree of freedom. 
 Please check the constraints used in this model. 


 ***WARNING: SOLVER PROBLEM.  ZERO PIVOT WHEN PROCESSING NODE 534 INSTANCE 
             ELASTIC-PLASTIC-PLATE-1 D.O.F. 11
  Typically a zero pivot is associated with an overconstraint in the model. 
 However, Abaqus was not able to identify any chains of constraints that might 
 lead to an overconstraint at this node. This suggests that the model might be 
 in fact insufficiently constrained in this particular degree of freedom. 
 Please check the constraints used in this model. 


 ***WARNING: SOLVER PROBLEM.  ZERO PIVOT WHEN PROCESSING NODE 535 INSTANCE 
             ELASTIC-PLASTIC-PLATE-1 D.O.F. 11
  Typically a zero pivot is associated with an overconstraint in the model. 
 However, Abaqus was not able to identify any chains of constraints that might 
 lead to an overconstraint at this node. This suggests that the model might be 
 in fact insufficiently constrained in this particular degree of freedom. 
 Please check the constraints used in this model. 


 ***WARNING: SOLVER PROBLEM.  ZERO PIVOT WHEN PROCESSING NODE 415 INSTANCE 
             ELASTIC-PLASTIC-PLATE-1 D.O.F. 11
  Typically a zero pivot is associated with an overconstraint in the model. 
 However, Abaqus was not able to identify any chains of constraints that might 
 lead to an overconstraint at this node. This suggests that the model might be 
 in fact insufficiently constrained in this particular degree of freedom. 
 Please check the constraints used in this model. 


 ***WARNING: Solver problem. Zero pivot when processing D.O.F. 11 of 49 nodes. 
             The nodes have been identified in node set 
             WarnNodeSolvProbZeroPiv_11_1_1_1_1.

               CONVERGENCE CHECKS FOR EQUILIBRIUM ITERATION     1


 AVERAGE FORCE                      2.002E+03   TIME AVG. FORCE       2.002E+03
 LARGEST SCALED RESIDUAL FORCE       8.70       AT NODE      11631   DOF  2
   INSTANCE: ELASTIC-PLASTIC-PLATE-1                                                         
  CORRESPONDING RESIDUAL FORCE       8.70    
 LARGEST INCREMENT OF DISP.         6.053E-06   AT NODE      11703   DOF  2
   INSTANCE: ELASTIC-PLASTIC-PLATE-1                                                         
 LARGEST CORRECTION TO DISP.        6.053E-06   AT NODE      11703   DOF  2
   INSTANCE: ELASTIC-PLASTIC-PLATE-1                                                         
          DISP.    CORRECTION TOO LARGE COMPARED TO DISP.    INCREMENT

 AVERAGE HEAT FLUX                  2.677E-26   TIME AVG. HEAT FLUX   1.000E-02
 LARGEST RESIDUAL HEAT FLUX        -3.343E-25   AT NODE       2461   DOF 11
   INSTANCE: ELASTIC-PLASTIC-PLATE-1                                                         
 LARGEST INCREMENT OF TEMP.        -1.090E-15   AT NODE          5   DOF 11
   INSTANCE: ELASTIC-PLASTIC-PLATE-1                                                         
 LARGEST CORRECTION TO TEMP.       -1.090E-15   AT NODE          5   DOF 11
   INSTANCE: ELASTIC-PLASTIC-PLATE-1                                                         
          THERE IS ZERO HEAT FLUX EVERYWHERE
 

 ***WARNING: THERE IS ZERO HEAT FLUX EVERYWHERE IN THE MODEL BASED ON THE 
             DEFAULT CRITERION. PLEASE CHECK THE VALUE OF THE AVERAGE HEAT FLUX 
             DURING THE CURRENT ITERATION TO VERIFY THAT THE HEAT FLUX IS SMALL 
             ENOUGH TO BE TREATED AS ZERO. IF NOT, PLEASE USE THE SOLUTION 
             CONTROLS TO RESET THE CRITERION FOR ZERO HEAT FLUX.
 
	UNSYMMETRIC NEW DIRECT SPARSE SOLVER RUNNING ON
 	1 HOST x 1 MPI RANK PER HOST x 4 THREADS PER RANK
        NUMBER OF EQUATIONS:  32172
        NUMBER OF RHS:        1
        NUMBER OF FLOPS:      1.373e+09
        SOLVER ELAPSED TIME:  36ms

               CONVERGENCE CHECKS FOR EQUILIBRIUM ITERATION     2


 AVERAGE FORCE                      2.002E+03   TIME AVG. FORCE       2.002E+03
 LARGEST SCALED RESIDUAL FORCE      3.365E-03   AT NODE      11631   DOF  1
   INSTANCE: ELASTIC-PLASTIC-PLATE-1                                                         
  CORRESPONDING RESIDUAL FORCE      3.365E-03
 LARGEST INCREMENT OF DISP.         6.053E-06   AT NODE      11703   DOF  2
   INSTANCE: ELASTIC-PLASTIC-PLATE-1                                                         
 LARGEST CORRECTION TO DISP.        4.432E-10   AT NODE      12304   DOF  1
   INSTANCE: ELASTIC-PLASTIC-PLATE-1                                                         
          THE FORCE     EQUILIBRIUM EQUATIONS HAVE CONVERGED

 AVERAGE HEAT FLUX                  2.724E-26   TIME AVG. HEAT FLUX   1.000E-02
 LARGEST RESIDUAL HEAT FLUX        -2.487E-25   AT NODE       2728   DOF 11
   INSTANCE: ELASTIC-PLASTIC-PLATE-1                                                         
 LARGEST INCREMENT OF TEMP.        -1.422E-15   AT NODE       3110   DOF 11
   INSTANCE: ELASTIC-PLASTIC-PLATE-1                                                         
 LARGEST CORRECTION TO TEMP.        1.114E-15   AT NODE       2425   DOF 11
   INSTANCE: ELASTIC-PLASTIC-PLATE-1                                                         
          THERE IS ZERO HEAT FLUX EVERYWHERE
 

 ***WARNING: THERE IS ZERO HEAT FLUX EVERYWHERE IN THE MODEL BASED ON THE 
             DEFAULT CRITERION. PLEASE CHECK THE VALUE OF THE AVERAGE HEAT FLUX 
             DURING THE CURRENT ITERATION TO VERIFY THAT THE HEAT FLUX IS SMALL 
             ENOUGH TO BE TREATED AS ZERO. IF NOT, PLEASE USE THE SOLUTION 
             CONTROLS TO RESET THE CRITERION FOR ZERO HEAT FLUX.

 ITERATION SUMMARY FOR THE INCREMENT:   2 TOTAL ITERATIONS, OF WHICH
   0 ARE SEVERE DISCONTINUITY ITERATIONS AND  2 ARE EQUILIBRIUM ITERATIONS.

 TIME INCREMENT COMPLETED  1.000E+03,  FRACTION OF STEP COMPLETED  1.000E-02
 STEP TIME COMPLETED       1.000E+03,  TOTAL TIME COMPLETED        1.000E+03


  INCREMENT     2 STARTS. ATTEMPT NUMBER  1, TIME INCREMENT  1.000E+03
 
	UNSYMMETRIC NEW DIRECT SPARSE SOLVER RUNNING ON
 	1 HOST x 1 MPI RANK PER HOST x 4 THREADS PER RANK
        NUMBER OF EQUATIONS:  32172
        NUMBER OF RHS:        1
        NUMBER OF FLOPS:      1.373e+09
        SOLVER ELAPSED TIME:  31ms

               CONVERGENCE CHECKS FOR EQUILIBRIUM ITERATION     1


 AVERAGE FORCE                      4.031E+03   TIME AVG. FORCE       3.016E+03
 LARGEST SCALED RESIDUAL FORCE       7.65       AT NODE          6   DOF  1
   INSTANCE: ELASTIC-PLASTIC-PLATE-1                                                         
  CORRESPONDING RESIDUAL FORCE       7.65    
 LARGEST INCREMENT OF DISP.         6.052E-06   AT NODE      11703   DOF  2
   INSTANCE: ELASTIC-PLASTIC-PLATE-1                                                         
 LARGEST CORRECTION TO DISP.        6.946E-09   AT NODE      12303   DOF  2
   INSTANCE: ELASTIC-PLASTIC-PLATE-1                                                         
          THE FORCE     EQUILIBRIUM EQUATIONS HAVE CONVERGED

 AVERAGE HEAT FLUX                  2.087E-13   TIME AVG. HEAT FLUX   1.000E-02
 LARGEST RESIDUAL HEAT FLUX         1.063E-11   AT NODE        263   DOF 11
   INSTANCE: ELASTIC-PLASTIC-PLATE-1                                                         
 LARGEST INCREMENT OF TEMP.         7.755E-02   AT NODE          6   DOF 11
   INSTANCE: ELASTIC-PLASTIC-PLATE-1                                                         
 LARGEST CORRECTION TO TEMP.        7.755E-02   AT NODE          6   DOF 11
   INSTANCE: ELASTIC-PLASTIC-PLATE-1                                                         
          THERE IS ZERO HEAT FLUX EVERYWHERE
 

 ***WARNING: THERE IS ZERO HEAT FLUX EVERYWHERE IN THE MODEL BASED ON THE 
             DEFAULT CRITERION. PLEASE CHECK THE VALUE OF THE AVERAGE HEAT FLUX 
             DURING THE CURRENT ITERATION TO VERIFY THAT THE HEAT FLUX IS SMALL 
             ENOUGH TO BE TREATED AS ZERO. IF NOT, PLEASE USE THE SOLUTION 
             CONTROLS TO RESET THE CRITERION FOR ZERO HEAT FLUX.

 ITERATION SUMMARY FOR THE INCREMENT:   1 TOTAL ITERATIONS, OF WHICH
   0 ARE SEVERE DISCONTINUITY ITERATIONS AND  1 ARE EQUILIBRIUM ITERATIONS.

 TIME INCREMENT COMPLETED  1.000E+03,  FRACTION OF STEP COMPLETED  2.000E-02
 STEP TIME COMPLETED       2.000E+03,  TOTAL TIME COMPLETED        2.000E+03


  INCREMENT     3 STARTS. ATTEMPT NUMBER  1, TIME INCREMENT  1.000E+03
 
	UNSYMMETRIC NEW DIRECT SPARSE SOLVER RUNNING ON
 	1 HOST x 1 MPI RANK PER HOST x 4 THREADS PER RANK
        NUMBER OF EQUATIONS:  32172
        NUMBER OF RHS:        1
        NUMBER OF FLOPS:      1.373e+09
        SOLVER ELAPSED TIME:  30ms

               CONVERGENCE CHECKS FOR EQUILIBRIUM ITERATION     1


 AVERAGE FORCE                      6.040E+03   TIME AVG. FORCE       4.024E+03
 LARGEST SCALED RESIDUAL FORCE     -2.793E+03   AT NODE      11882   DOF  1
   INSTANCE: ELASTIC-PLASTIC-PLATE-1                                                         
  CORRESPONDING RESIDUAL FORCE     -2.793E+03
 LARGEST INCREMENT OF DISP.         6.053E-06   AT NODE      11703   DOF  2
   INSTANCE: ELASTIC-PLASTIC-PLATE-1                                                         
 LARGEST CORRECTION TO DISP.        1.858E-07   AT NODE      11917   DOF  2
   INSTANCE: ELASTIC-PLASTIC-PLATE-1                                                         
          FORCE     EQUILIBRIUM NOT ACHIEVED WITHIN TOLERANCE.

 AVERAGE HEAT FLUX                  3.118E-13   TIME AVG. HEAT FLUX   1.000E-02
 LARGEST RESIDUAL HEAT FLUX         9.356E-12   AT NODE        263   DOF 11
   INSTANCE: ELASTIC-PLASTIC-PLATE-1                                                         
 LARGEST INCREMENT OF TEMP.         0.101       AT NODE          6   DOF 11
   INSTANCE: ELASTIC-PLASTIC-PLATE-1                                                         
 LARGEST CORRECTION TO TEMP.        3.336E-02   AT NODE        263   DOF 11
   INSTANCE: ELASTIC-PLASTIC-PLATE-1                                                         
          THERE IS ZERO HEAT FLUX EVERYWHERE
 

 ***WARNING: THERE IS ZERO HEAT FLUX EVERYWHERE IN THE MODEL BASED ON THE 
             DEFAULT CRITERION. PLEASE CHECK THE VALUE OF THE AVERAGE HEAT FLUX 
             DURING THE CURRENT ITERATION TO VERIFY THAT THE HEAT FLUX IS SMALL 
             ENOUGH TO BE TREATED AS ZERO. IF NOT, PLEASE USE THE SOLUTION 
             CONTROLS TO RESET THE CRITERION FOR ZERO HEAT FLUX.
 
	UNSYMMETRIC NEW DIRECT SPARSE SOLVER RUNNING ON
 	1 HOST x 1 MPI RANK PER HOST x 4 THREADS PER RANK
        NUMBER OF EQUATIONS:  32172
        NUMBER OF RHS:        1
        NUMBER OF FLOPS:      1.373e+09
        SOLVER ELAPSED TIME:  38ms

               CONVERGENCE CHECKS FOR EQUILIBRIUM ITERATION     2


 AVERAGE FORCE                      6.040E+03   TIME AVG. FORCE       4.024E+03
 LARGEST SCALED RESIDUAL FORCE      -73.6       AT NODE      11882   DOF  1
   INSTANCE: ELASTIC-PLASTIC-PLATE-1                                                         
  CORRESPONDING RESIDUAL FORCE      -73.6    
 LARGEST INCREMENT OF DISP.         6.053E-06   AT NODE      11703   DOF  2
   INSTANCE: ELASTIC-PLASTIC-PLATE-1                                                         
 LARGEST CORRECTION TO DISP.        3.570E-08   AT NODE          6   DOF  1
   INSTANCE: ELASTIC-PLASTIC-PLATE-1                                                         
          FORCE     EQUILIBRIUM NOT ACHIEVED WITHIN TOLERANCE.

 AVERAGE HEAT FLUX                  3.160E-13   TIME AVG. HEAT FLUX   1.000E-02
 LARGEST RESIDUAL HEAT FLUX         4.638E-11   AT NODE       3083   DOF 11
   INSTANCE: ELASTIC-PLASTIC-PLATE-1                                                         
 LARGEST INCREMENT OF TEMP.         0.153       AT NODE          6   DOF 11
   INSTANCE: ELASTIC-PLASTIC-PLATE-1                                                         
 LARGEST CORRECTION TO TEMP.        5.564E-02   AT NODE        263   DOF 11
   INSTANCE: ELASTIC-PLASTIC-PLATE-1                                                         
          THERE IS ZERO HEAT FLUX EVERYWHERE
 

 ***WARNING: THERE IS ZERO HEAT FLUX EVERYWHERE IN THE MODEL BASED ON THE 
             DEFAULT CRITERION. PLEASE CHECK THE VALUE OF THE AVERAGE HEAT FLUX 
             DURING THE CURRENT ITERATION TO VERIFY THAT THE HEAT FLUX IS SMALL 
             ENOUGH TO BE TREATED AS ZERO. IF NOT, PLEASE USE THE SOLUTION 
             CONTROLS TO RESET THE CRITERION FOR ZERO HEAT FLUX.
 
	UNSYMMETRIC NEW DIRECT SPARSE SOLVER RUNNING ON
 	1 HOST x 1 MPI RANK PER HOST x 4 THREADS PER RANK
        NUMBER OF EQUATIONS:  32172
        NUMBER OF RHS:        1
        NUMBER OF FLOPS:      1.373e+09
        SOLVER ELAPSED TIME:  31ms

               CONVERGENCE CHECKS FOR EQUILIBRIUM ITERATION     3


 AVERAGE FORCE                      6.040E+03   TIME AVG. FORCE       4.024E+03
 LARGEST SCALED RESIDUAL FORCE      5.526E-02   AT NODE        264   DOF  1
   INSTANCE: ELASTIC-PLASTIC-PLATE-1                                                         
  CORRESPONDING RESIDUAL FORCE      5.526E-02
 LARGEST INCREMENT OF DISP.         6.053E-06   AT NODE      11703   DOF  2
   INSTANCE: ELASTIC-PLASTIC-PLATE-1                                                         
 LARGEST CORRECTION TO DISP.        7.589E-10   AT NODE      12304   DOF  1
   INSTANCE: ELASTIC-PLASTIC-PLATE-1                                                         
          THE FORCE     EQUILIBRIUM EQUATIONS HAVE CONVERGED

 AVERAGE HEAT FLUX                  3.092E-13   TIME AVG. HEAT FLUX   1.000E-02
 LARGEST RESIDUAL HEAT FLUX         8.329E-12   AT NODE        265   DOF 11
   INSTANCE: ELASTIC-PLASTIC-PLATE-1                                                         
 LARGEST INCREMENT OF TEMP.         0.143       AT NODE       3083   DOF 11
   INSTANCE: ELASTIC-PLASTIC-PLATE-1                                                         
 LARGEST CORRECTION TO TEMP.       -0.284       AT NODE          6   DOF 11
   INSTANCE: ELASTIC-PLASTIC-PLATE-1                                                         
          THERE IS ZERO HEAT FLUX EVERYWHERE
 

 ***WARNING: THERE IS ZERO HEAT FLUX EVERYWHERE IN THE MODEL BASED ON THE 
             DEFAULT CRITERION. PLEASE CHECK THE VALUE OF THE AVERAGE HEAT FLUX 
             DURING THE CURRENT ITERATION TO VERIFY THAT THE HEAT FLUX IS SMALL 
             ENOUGH TO BE TREATED AS ZERO. IF NOT, PLEASE USE THE SOLUTION 
             CONTROLS TO RESET THE CRITERION FOR ZERO HEAT FLUX.

 ITERATION SUMMARY FOR THE INCREMENT:   3 TOTAL ITERATIONS, OF WHICH
   0 ARE SEVERE DISCONTINUITY ITERATIONS AND  3 ARE EQUILIBRIUM ITERATIONS.

 TIME INCREMENT COMPLETED  1.000E+03,  FRACTION OF STEP COMPLETED  3.000E-02
 STEP TIME COMPLETED       3.000E+03,  TOTAL TIME COMPLETED        3.000E+03


  INCREMENT     4 STARTS. ATTEMPT NUMBER  1, TIME INCREMENT  1.000E+03
 
	UNSYMMETRIC NEW DIRECT SPARSE SOLVER RUNNING ON
 	1 HOST x 1 MPI RANK PER HOST x 4 THREADS PER RANK
        NUMBER OF EQUATIONS:  32172
        NUMBER OF RHS:        1
        NUMBER OF FLOPS:      1.373e+09
        SOLVER ELAPSED TIME:  31ms

               CONVERGENCE CHECKS FOR EQUILIBRIUM ITERATION     1


 AVERAGE FORCE                      8.035E+03   TIME AVG. FORCE       5.027E+03
 LARGEST SCALED RESIDUAL FORCE      2.336E+03   AT NODE       2813   DOF  2
   INSTANCE: ELASTIC-PLASTIC-PLATE-1                                                         
  CORRESPONDING RESIDUAL FORCE      2.336E+03
 LARGEST INCREMENT OF DISP.         6.058E-06   AT NODE      11703   DOF  2
   INSTANCE: ELASTIC-PLASTIC-PLATE-1                                                         
 LARGEST CORRECTION TO DISP.        2.934E-07   AT NODE          6   DOF  1
   INSTANCE: ELASTIC-PLASTIC-PLATE-1                                                         
          FORCE     EQUILIBRIUM NOT ACHIEVED WITHIN TOLERANCE.

 AVERAGE HEAT FLUX                  4.173E-13   TIME AVG. HEAT FLUX   1.000E-02
 LARGEST RESIDUAL HEAT FLUX         4.182E-11   AT NODE       3083   DOF 11
   INSTANCE: ELASTIC-PLASTIC-PLATE-1                                                         
 LARGEST INCREMENT OF TEMP.         8.221E-02   AT NODE        265   DOF 11
   INSTANCE: ELASTIC-PLASTIC-PLATE-1                                                         
 LARGEST CORRECTION TO TEMP.        9.573E-02   AT NODE        265   DOF 11
   INSTANCE: ELASTIC-PLASTIC-PLATE-1                                                         
          THERE IS ZERO HEAT FLUX EVERYWHERE
 

 ***WARNING: THERE IS ZERO HEAT FLUX EVERYWHERE IN THE MODEL BASED ON THE 
             DEFAULT CRITERION. PLEASE CHECK THE VALUE OF THE AVERAGE HEAT FLUX 
             DURING THE CURRENT ITERATION TO VERIFY THAT THE HEAT FLUX IS SMALL 
             ENOUGH TO BE TREATED AS ZERO. IF NOT, PLEASE USE THE SOLUTION 
             CONTROLS TO RESET THE CRITERION FOR ZERO HEAT FLUX.
 
	UNSYMMETRIC NEW DIRECT SPARSE SOLVER RUNNING ON
 	1 HOST x 1 MPI RANK PER HOST x 4 THREADS PER RANK
        NUMBER OF EQUATIONS:  32172
        NUMBER OF RHS:        1
        NUMBER OF FLOPS:      1.373e+09
        SOLVER ELAPSED TIME:  35ms

               CONVERGENCE CHECKS FOR EQUILIBRIUM ITERATION     2


 AVERAGE FORCE                      8.036E+03   TIME AVG. FORCE       5.027E+03
 LARGEST SCALED RESIDUAL FORCE       6.94       AT NODE        262   DOF  1
   INSTANCE: ELASTIC-PLASTIC-PLATE-1                                                         
  CORRESPONDING RESIDUAL FORCE       6.94    
 LARGEST INCREMENT OF DISP.         6.058E-06   AT NODE      11703   DOF  2
   INSTANCE: ELASTIC-PLASTIC-PLATE-1                                                         
 LARGEST CORRECTION TO DISP.        2.048E-08   AT NODE      11917   DOF  1
   INSTANCE: ELASTIC-PLASTIC-PLATE-1                                                         
          THE FORCE     EQUILIBRIUM EQUATIONS HAVE CONVERGED

 AVERAGE HEAT FLUX                  4.161E-13   TIME AVG. HEAT FLUX   1.000E-02
 LARGEST RESIDUAL HEAT FLUX        -6.267E-11   AT NODE       3083   DOF 11
   INSTANCE: ELASTIC-PLASTIC-PLATE-1                                                         
 LARGEST INCREMENT OF TEMP.        -0.304       AT NODE          6   DOF 11
   INSTANCE: ELASTIC-PLASTIC-PLATE-1                                                         
 LARGEST CORRECTION TO TEMP.       -0.250       AT NODE          6   DOF 11
   INSTANCE: ELASTIC-PLASTIC-PLATE-1                                                         
          THERE IS ZERO HEAT FLUX EVERYWHERE
 

 ***WARNING: THERE IS ZERO HEAT FLUX EVERYWHERE IN THE MODEL BASED ON THE 
             DEFAULT CRITERION. PLEASE CHECK THE VALUE OF THE AVERAGE HEAT FLUX 
             DURING THE CURRENT ITERATION TO VERIFY THAT THE HEAT FLUX IS SMALL 
             ENOUGH TO BE TREATED AS ZERO. IF NOT, PLEASE USE THE SOLUTION 
             CONTROLS TO RESET THE CRITERION FOR ZERO HEAT FLUX.

 ITERATION SUMMARY FOR THE INCREMENT:   2 TOTAL ITERATIONS, OF WHICH
   0 ARE SEVERE DISCONTINUITY ITERATIONS AND  2 ARE EQUILIBRIUM ITERATIONS.

 TIME INCREMENT COMPLETED  1.000E+03,  FRACTION OF STEP COMPLETED  4.000E-02
 STEP TIME COMPLETED       4.000E+03,  TOTAL TIME COMPLETED        4.000E+03


  INCREMENT     5 STARTS. ATTEMPT NUMBER  1, TIME INCREMENT  1.000E+03
 
	UNSYMMETRIC NEW DIRECT SPARSE SOLVER RUNNING ON
 	1 HOST x 1 MPI RANK PER HOST x 4 THREADS PER RANK
        NUMBER OF EQUATIONS:  32172
        NUMBER OF RHS:        1
        NUMBER OF FLOPS:      1.373e+09
        SOLVER ELAPSED TIME:  32ms

               CONVERGENCE CHECKS FOR EQUILIBRIUM ITERATION     1


 AVERAGE FORCE                      1.001E+04   TIME AVG. FORCE       6.024E+03
 LARGEST SCALED RESIDUAL FORCE      1.889E+03   AT NODE      11795   DOF  1
   INSTANCE: ELASTIC-PLASTIC-PLATE-1                                                         
  CORRESPONDING RESIDUAL FORCE      1.889E+03
 LARGEST INCREMENT OF DISP.         6.064E-06   AT NODE      11703   DOF  2
   INSTANCE: ELASTIC-PLASTIC-PLATE-1                                                         
 LARGEST CORRECTION TO DISP.        3.254E-07   AT NODE          6   DOF  1
   INSTANCE: ELASTIC-PLASTIC-PLATE-1                                                         
          FORCE     EQUILIBRIUM NOT ACHIEVED WITHIN TOLERANCE.

 AVERAGE HEAT FLUX                  5.187E-13   TIME AVG. HEAT FLUX   1.000E-02
 LARGEST RESIDUAL HEAT FLUX        -2.311E-11   AT NODE       3083   DOF 11
   INSTANCE: ELASTIC-PLASTIC-PLATE-1                                                         
 LARGEST INCREMENT OF TEMP.        -0.123       AT NODE       3083   DOF 11
   INSTANCE: ELASTIC-PLASTIC-PLATE-1                                                         
 LARGEST CORRECTION TO TEMP.        0.370       AT NODE          6   DOF 11
   INSTANCE: ELASTIC-PLASTIC-PLATE-1                                                         
          THERE IS ZERO HEAT FLUX EVERYWHERE
 

 ***WARNING: THERE IS ZERO HEAT FLUX EVERYWHERE IN THE MODEL BASED ON THE 
             DEFAULT CRITERION. PLEASE CHECK THE VALUE OF THE AVERAGE HEAT FLUX 
             DURING THE CURRENT ITERATION TO VERIFY THAT THE HEAT FLUX IS SMALL 
             ENOUGH TO BE TREATED AS ZERO. IF NOT, PLEASE USE THE SOLUTION 
             CONTROLS TO RESET THE CRITERION FOR ZERO HEAT FLUX.
 
	UNSYMMETRIC NEW DIRECT SPARSE SOLVER RUNNING ON
 	1 HOST x 1 MPI RANK PER HOST x 4 THREADS PER RANK
        NUMBER OF EQUATIONS:  32172
        NUMBER OF RHS:        1
        NUMBER OF FLOPS:      1.373e+09
        SOLVER ELAPSED TIME:  30ms

               CONVERGENCE CHECKS FOR EQUILIBRIUM ITERATION     2


 AVERAGE FORCE                      1.001E+04   TIME AVG. FORCE       6.024E+03
 LARGEST SCALED RESIDUAL FORCE       21.1       AT NODE      11795   DOF  1
   INSTANCE: ELASTIC-PLASTIC-PLATE-1                                                         
  CORRESPONDING RESIDUAL FORCE       21.1    
 LARGEST INCREMENT OF DISP.         6.064E-06   AT NODE      11703   DOF  2
   INSTANCE: ELASTIC-PLASTIC-PLATE-1                                                         
 LARGEST CORRECTION TO DISP.        2.568E-08   AT NODE      11632   DOF  1
   INSTANCE: ELASTIC-PLASTIC-PLATE-1                                                         
          THE FORCE     EQUILIBRIUM EQUATIONS HAVE CONVERGED

 AVERAGE HEAT FLUX                  5.135E-13   TIME AVG. HEAT FLUX   1.000E-02
 LARGEST RESIDUAL HEAT FLUX        -2.376E-11   AT NODE       2776   DOF 11
   INSTANCE: ELASTIC-PLASTIC-PLATE-1                                                         
 LARGEST INCREMENT OF TEMP.        -0.203       AT NODE       3083   DOF 11
   INSTANCE: ELASTIC-PLASTIC-PLATE-1                                                         
 LARGEST CORRECTION TO TEMP.       -7.979E-02   AT NODE       3083   DOF 11
   INSTANCE: ELASTIC-PLASTIC-PLATE-1                                                         
          THERE IS ZERO HEAT FLUX EVERYWHERE
 

 ***WARNING: THERE IS ZERO HEAT FLUX EVERYWHERE IN THE MODEL BASED ON THE 
             DEFAULT CRITERION. PLEASE CHECK THE VALUE OF THE AVERAGE HEAT FLUX 
             DURING THE CURRENT ITERATION TO VERIFY THAT THE HEAT FLUX IS SMALL 
             ENOUGH TO BE TREATED AS ZERO. IF NOT, PLEASE USE THE SOLUTION 
             CONTROLS TO RESET THE CRITERION FOR ZERO HEAT FLUX.

 ITERATION SUMMARY FOR THE INCREMENT:   2 TOTAL ITERATIONS, OF WHICH
   0 ARE SEVERE DISCONTINUITY ITERATIONS AND  2 ARE EQUILIBRIUM ITERATIONS.

 TIME INCREMENT COMPLETED  1.000E+03,  FRACTION OF STEP COMPLETED  5.000E-02
 STEP TIME COMPLETED       5.000E+03,  TOTAL TIME COMPLETED        5.000E+03


  INCREMENT     6 STARTS. ATTEMPT NUMBER  1, TIME INCREMENT  1.000E+03
 
	UNSYMMETRIC NEW DIRECT SPARSE SOLVER RUNNING ON
 	1 HOST x 1 MPI RANK PER HOST x 4 THREADS PER RANK
        NUMBER OF EQUATIONS:  32172
        NUMBER OF RHS:        1
        NUMBER OF FLOPS:      1.373e+09
        SOLVER ELAPSED TIME:  32ms

               CONVERGENCE CHECKS FOR EQUILIBRIUM ITERATION     1


 AVERAGE FORCE                      1.196E+04   TIME AVG. FORCE       7.014E+03
 LARGEST SCALED RESIDUAL FORCE     -2.211E+03   AT NODE      10359   DOF  1
   INSTANCE: ELASTIC-PLASTIC-PLATE-1                                                         
  CORRESPONDING RESIDUAL FORCE     -2.211E+03
 LARGEST INCREMENT OF DISP.         6.071E-06   AT NODE      11703   DOF  2
   INSTANCE: ELASTIC-PLASTIC-PLATE-1                                                         
 LARGEST CORRECTION TO DISP.        3.184E-07   AT NODE          6   DOF  1
   INSTANCE: ELASTIC-PLASTIC-PLATE-1                                                         
          FORCE     EQUILIBRIUM NOT ACHIEVED WITHIN TOLERANCE.

 AVERAGE HEAT FLUX                  6.158E-13   TIME AVG. HEAT FLUX   1.000E-02
 LARGEST RESIDUAL HEAT FLUX         1.624E-11   AT NODE       2745   DOF 11
   INSTANCE: ELASTIC-PLASTIC-PLATE-1                                                         
 LARGEST INCREMENT OF TEMP.         8.238E-02   AT NODE        267   DOF 11
   INSTANCE: ELASTIC-PLASTIC-PLATE-1                                                         
 LARGEST CORRECTION TO TEMP.        0.182       AT NODE       3083   DOF 11
   INSTANCE: ELASTIC-PLASTIC-PLATE-1                                                         
          THERE IS ZERO HEAT FLUX EVERYWHERE
 

 ***WARNING: THERE IS ZERO HEAT FLUX EVERYWHERE IN THE MODEL BASED ON THE 
             DEFAULT CRITERION. PLEASE CHECK THE VALUE OF THE AVERAGE HEAT FLUX 
             DURING THE CURRENT ITERATION TO VERIFY THAT THE HEAT FLUX IS SMALL 
             ENOUGH TO BE TREATED AS ZERO. IF NOT, PLEASE USE THE SOLUTION 
             CONTROLS TO RESET THE CRITERION FOR ZERO HEAT FLUX.
 
	UNSYMMETRIC NEW DIRECT SPARSE SOLVER RUNNING ON
 	1 HOST x 1 MPI RANK PER HOST x 4 THREADS PER RANK
        NUMBER OF EQUATIONS:  32172
        NUMBER OF RHS:        1
        NUMBER OF FLOPS:      1.373e+09
        SOLVER ELAPSED TIME:  30ms

               CONVERGENCE CHECKS FOR EQUILIBRIUM ITERATION     2


 AVERAGE FORCE                      1.196E+04   TIME AVG. FORCE       7.014E+03
 LARGEST SCALED RESIDUAL FORCE      -32.5       AT NODE       3042   DOF  2
   INSTANCE: ELASTIC-PLASTIC-PLATE-1                                                         
  CORRESPONDING RESIDUAL FORCE      -32.5    
 LARGEST INCREMENT OF DISP.         6.071E-06   AT NODE      11703   DOF  2
   INSTANCE: ELASTIC-PLASTIC-PLATE-1                                                         
 LARGEST CORRECTION TO DISP.        2.403E-08   AT NODE      10354   DOF  1
   INSTANCE: ELASTIC-PLASTIC-PLATE-1                                                         
          THE FORCE     EQUILIBRIUM EQUATIONS HAVE CONVERGED

 AVERAGE HEAT FLUX                  6.113E-13   TIME AVG. HEAT FLUX   1.000E-02
 LARGEST RESIDUAL HEAT FLUX        -2.385E-11   AT NODE       2745   DOF 11
   INSTANCE: ELASTIC-PLASTIC-PLATE-1                                                         
 LARGEST INCREMENT OF TEMP.         0.145       AT NODE        267   DOF 11
   INSTANCE: ELASTIC-PLASTIC-PLATE-1                                                         
 LARGEST CORRECTION TO TEMP.        6.297E-02   AT NODE        267   DOF 11
   INSTANCE: ELASTIC-PLASTIC-PLATE-1                                                         
          THERE IS ZERO HEAT FLUX EVERYWHERE
 

 ***WARNING: THERE IS ZERO HEAT FLUX EVERYWHERE IN THE MODEL BASED ON THE 
             DEFAULT CRITERION. PLEASE CHECK THE VALUE OF THE AVERAGE HEAT FLUX 
             DURING THE CURRENT ITERATION TO VERIFY THAT THE HEAT FLUX IS SMALL 
             ENOUGH TO BE TREATED AS ZERO. IF NOT, PLEASE USE THE SOLUTION 
             CONTROLS TO RESET THE CRITERION FOR ZERO HEAT FLUX.

 ITERATION SUMMARY FOR THE INCREMENT:   2 TOTAL ITERATIONS, OF WHICH
   0 ARE SEVERE DISCONTINUITY ITERATIONS AND  2 ARE EQUILIBRIUM ITERATIONS.

 TIME INCREMENT COMPLETED  1.000E+03,  FRACTION OF STEP COMPLETED  6.000E-02
 STEP TIME COMPLETED       6.000E+03,  TOTAL TIME COMPLETED        6.000E+03


  INCREMENT     7 STARTS. ATTEMPT NUMBER  1, TIME INCREMENT  1.000E+03
 
	UNSYMMETRIC NEW DIRECT SPARSE SOLVER RUNNING ON
 	1 HOST x 1 MPI RANK PER HOST x 4 THREADS PER RANK
        NUMBER OF EQUATIONS:  32172
        NUMBER OF RHS:        1
        NUMBER OF FLOPS:      1.373e+09
        SOLVER ELAPSED TIME:  33ms

               CONVERGENCE CHECKS FOR EQUILIBRIUM ITERATION     1


 AVERAGE FORCE                      1.388E+04   TIME AVG. FORCE       7.994E+03
 LARGEST SCALED RESIDUAL FORCE      1.838E+03   AT NODE        259   DOF  1
   INSTANCE: ELASTIC-PLASTIC-PLATE-1                                                         
  CORRESPONDING RESIDUAL FORCE      1.838E+03
 LARGEST INCREMENT OF DISP.         6.074E-06   AT NODE      11703   DOF  2
   INSTANCE: ELASTIC-PLASTIC-PLATE-1                                                         
 LARGEST CORRECTION TO DISP.        3.280E-07   AT NODE        260   DOF  1
   INSTANCE: ELASTIC-PLASTIC-PLATE-1                                                         
          FORCE     EQUILIBRIUM NOT ACHIEVED WITHIN TOLERANCE.

 AVERAGE HEAT FLUX                  7.093E-13   TIME AVG. HEAT FLUX   1.000E-02
 LARGEST RESIDUAL HEAT FLUX         1.006E-11   AT NODE       2977   DOF 11
   INSTANCE: ELASTIC-PLASTIC-PLATE-1                                                         
 LARGEST INCREMENT OF TEMP.        -6.090E-02   AT NODE        261   DOF 11
   INSTANCE: ELASTIC-PLASTIC-PLATE-1                                                         
 LARGEST CORRECTION TO TEMP.       -0.142       AT NODE        267   DOF 11
   INSTANCE: ELASTIC-PLASTIC-PLATE-1                                                         
          THERE IS ZERO HEAT FLUX EVERYWHERE
 

 ***WARNING: THERE IS ZERO HEAT FLUX EVERYWHERE IN THE MODEL BASED ON THE 
             DEFAULT CRITERION. PLEASE CHECK THE VALUE OF THE AVERAGE HEAT FLUX 
             DURING THE CURRENT ITERATION TO VERIFY THAT THE HEAT FLUX IS SMALL 
             ENOUGH TO BE TREATED AS ZERO. IF NOT, PLEASE USE THE SOLUTION 
             CONTROLS TO RESET THE CRITERION FOR ZERO HEAT FLUX.
 
	UNSYMMETRIC NEW DIRECT SPARSE SOLVER RUNNING ON
 	1 HOST x 1 MPI RANK PER HOST x 4 THREADS PER RANK
        NUMBER OF EQUATIONS:  32172
        NUMBER OF RHS:        1
        NUMBER OF FLOPS:      1.373e+09
        SOLVER ELAPSED TIME:  31ms

               CONVERGENCE CHECKS FOR EQUILIBRIUM ITERATION     2


 AVERAGE FORCE                      1.388E+04   TIME AVG. FORCE       7.995E+03
 LARGEST SCALED RESIDUAL FORCE      -101.       AT NODE      12105   DOF  2
   INSTANCE: ELASTIC-PLASTIC-PLATE-1                                                         
  CORRESPONDING RESIDUAL FORCE      -101.    
 LARGEST INCREMENT OF DISP.         6.074E-06   AT NODE      11703   DOF  2
   INSTANCE: ELASTIC-PLASTIC-PLATE-1                                                         
 LARGEST CORRECTION TO DISP.        3.111E-08   AT NODE      11712   DOF  1
   INSTANCE: ELASTIC-PLASTIC-PLATE-1                                                         
          FORCE     EQUILIBRIUM NOT ACHIEVED WITHIN TOLERANCE.

 AVERAGE HEAT FLUX                  7.028E-13   TIME AVG. HEAT FLUX   1.000E-02
 LARGEST RESIDUAL HEAT FLUX         1.753E-11   AT NODE       2814   DOF 11
   INSTANCE: ELASTIC-PLASTIC-PLATE-1                                                         
 LARGEST INCREMENT OF TEMP.        -0.111       AT NODE        261   DOF 11
   INSTANCE: ELASTIC-PLASTIC-PLATE-1                                                         
 LARGEST CORRECTION TO TEMP.       -4.962E-02   AT NODE        261   DOF 11
   INSTANCE: ELASTIC-PLASTIC-PLATE-1                                                         
          THERE IS ZERO HEAT FLUX EVERYWHERE
 

 ***WARNING: THERE IS ZERO HEAT FLUX EVERYWHERE IN THE MODEL BASED ON THE 
             DEFAULT CRITERION. PLEASE CHECK THE VALUE OF THE AVERAGE HEAT FLUX 
             DURING THE CURRENT ITERATION TO VERIFY THAT THE HEAT FLUX IS SMALL 
             ENOUGH TO BE TREATED AS ZERO. IF NOT, PLEASE USE THE SOLUTION 
             CONTROLS TO RESET THE CRITERION FOR ZERO HEAT FLUX.
 
	UNSYMMETRIC NEW DIRECT SPARSE SOLVER RUNNING ON
 	1 HOST x 1 MPI RANK PER HOST x 4 THREADS PER RANK
        NUMBER OF EQUATIONS:  32172
        NUMBER OF RHS:        1
        NUMBER OF FLOPS:      1.373e+09
        SOLVER ELAPSED TIME:  32ms

               CONVERGENCE CHECKS FOR EQUILIBRIUM ITERATION     3


 AVERAGE FORCE                      1.388E+04   TIME AVG. FORCE       7.995E+03
 LARGEST SCALED RESIDUAL FORCE      9.712E-02   AT NODE      12105   DOF  2
   INSTANCE: ELASTIC-PLASTIC-PLATE-1                                                         
  CORRESPONDING RESIDUAL FORCE      9.712E-02
 LARGEST INCREMENT OF DISP.         6.074E-06   AT NODE      11703   DOF  2
   INSTANCE: ELASTIC-PLASTIC-PLATE-1                                                         
 LARGEST CORRECTION TO DISP.        2.967E-10   AT NODE      11712   DOF  1
   INSTANCE: ELASTIC-PLASTIC-PLATE-1                                                         
          THE FORCE     EQUILIBRIUM EQUATIONS HAVE CONVERGED

 AVERAGE HEAT FLUX                  7.012E-13   TIME AVG. HEAT FLUX   1.000E-02
 LARGEST RESIDUAL HEAT FLUX         5.455E-12   AT NODE       2815   DOF 11
   INSTANCE: ELASTIC-PLASTIC-PLATE-1                                                         
 LARGEST INCREMENT OF TEMP.        -7.517E-02   AT NODE        261   DOF 11
   INSTANCE: ELASTIC-PLASTIC-PLATE-1                                                         
 LARGEST CORRECTION TO TEMP.       -8.267E-02   AT NODE        260   DOF 11
   INSTANCE: ELASTIC-PLASTIC-PLATE-1                                                         
          THERE IS ZERO HEAT FLUX EVERYWHERE
 

 ***WARNING: THERE IS ZERO HEAT FLUX EVERYWHERE IN THE MODEL BASED ON THE 
             DEFAULT CRITERION. PLEASE CHECK THE VALUE OF THE AVERAGE HEAT FLUX 
             DURING THE CURRENT ITERATION TO VERIFY THAT THE HEAT FLUX IS SMALL 
             ENOUGH TO BE TREATED AS ZERO. IF NOT, PLEASE USE THE SOLUTION 
             CONTROLS TO RESET THE CRITERION FOR ZERO HEAT FLUX.

 ITERATION SUMMARY FOR THE INCREMENT:   3 TOTAL ITERATIONS, OF WHICH
   0 ARE SEVERE DISCONTINUITY ITERATIONS AND  3 ARE EQUILIBRIUM ITERATIONS.

 TIME INCREMENT COMPLETED  1.000E+03,  FRACTION OF STEP COMPLETED  7.000E-02
 STEP TIME COMPLETED       7.000E+03,  TOTAL TIME COMPLETED        7.000E+03


  INCREMENT     8 STARTS. ATTEMPT NUMBER  1, TIME INCREMENT  1.000E+03
 
	UNSYMMETRIC NEW DIRECT SPARSE SOLVER RUNNING ON
 	1 HOST x 1 MPI RANK PER HOST x 4 THREADS PER RANK
        NUMBER OF EQUATIONS:  32172
        NUMBER OF RHS:        1
        NUMBER OF FLOPS:      1.373e+09
        SOLVER ELAPSED TIME:  33ms

               CONVERGENCE CHECKS FOR EQUILIBRIUM ITERATION     1


 AVERAGE FORCE                      1.576E+04   TIME AVG. FORCE       8.965E+03
 LARGEST SCALED RESIDUAL FORCE       523.       AT NODE      11437   DOF  2
   INSTANCE: ELASTIC-PLASTIC-PLATE-1                                                         
  CORRESPONDING RESIDUAL FORCE       523.    
 LARGEST INCREMENT OF DISP.         6.057E-06   AT NODE      11703   DOF  2
   INSTANCE: ELASTIC-PLASTIC-PLATE-1                                                         
 LARGEST CORRECTION TO DISP.        3.713E-07   AT NODE        259   DOF  1
   INSTANCE: ELASTIC-PLASTIC-PLATE-1                                                         
          FORCE     EQUILIBRIUM NOT ACHIEVED WITHIN TOLERANCE.

 AVERAGE HEAT FLUX                  7.998E-13   TIME AVG. HEAT FLUX   1.000E-02
 LARGEST RESIDUAL HEAT FLUX         1.549E-11   AT NODE       2814   DOF 11
   INSTANCE: ELASTIC-PLASTIC-PLATE-1                                                         
 LARGEST INCREMENT OF TEMP.        -5.430E-02   AT NODE        261   DOF 11
   INSTANCE: ELASTIC-PLASTIC-PLATE-1                                                         
 LARGEST CORRECTION TO TEMP.        4.060E-02   AT NODE       2815   DOF 11
   INSTANCE: ELASTIC-PLASTIC-PLATE-1                                                         
          THERE IS ZERO HEAT FLUX EVERYWHERE
 

 ***WARNING: THERE IS ZERO HEAT FLUX EVERYWHERE IN THE MODEL BASED ON THE 
             DEFAULT CRITERION. PLEASE CHECK THE VALUE OF THE AVERAGE HEAT FLUX 
             DURING THE CURRENT ITERATION TO VERIFY THAT THE HEAT FLUX IS SMALL 
             ENOUGH TO BE TREATED AS ZERO. IF NOT, PLEASE USE THE SOLUTION 
             CONTROLS TO RESET THE CRITERION FOR ZERO HEAT FLUX.
 
	UNSYMMETRIC NEW DIRECT SPARSE SOLVER RUNNING ON
 	1 HOST x 1 MPI RANK PER HOST x 4 THREADS PER RANK
        NUMBER OF EQUATIONS:  32172
        NUMBER OF RHS:        1
        NUMBER OF FLOPS:      1.373e+09
        SOLVER ELAPSED TIME:  37ms

               CONVERGENCE CHECKS FOR EQUILIBRIUM ITERATION     2


 AVERAGE FORCE                      1.576E+04   TIME AVG. FORCE       8.966E+03
 LARGEST SCALED RESIDUAL FORCE       32.3       AT NODE      12798   DOF  2
   INSTANCE: ELASTIC-PLASTIC-PLATE-1                                                         
  CORRESPONDING RESIDUAL FORCE       32.3    
 LARGEST INCREMENT OF DISP.         6.057E-06   AT NODE      11703   DOF  2
   INSTANCE: ELASTIC-PLASTIC-PLATE-1                                                         
 LARGEST CORRECTION TO DISP.        9.274E-09   AT NODE        259   DOF  1
   INSTANCE: ELASTIC-PLASTIC-PLATE-1                                                         
          THE FORCE     EQUILIBRIUM EQUATIONS HAVE CONVERGED

 AVERAGE HEAT FLUX                  7.942E-13   TIME AVG. HEAT FLUX   1.000E-02
 LARGEST RESIDUAL HEAT FLUX         1.802E-11   AT NODE       2815   DOF 11
   INSTANCE: ELASTIC-PLASTIC-PLATE-1                                                         
 LARGEST INCREMENT OF TEMP.        -7.873E-02   AT NODE          6   DOF 11
   INSTANCE: ELASTIC-PLASTIC-PLATE-1                                                         
 LARGEST CORRECTION TO TEMP.       -4.703E-02   AT NODE        260   DOF 11
   INSTANCE: ELASTIC-PLASTIC-PLATE-1                                                         
          THERE IS ZERO HEAT FLUX EVERYWHERE
 

 ***WARNING: THERE IS ZERO HEAT FLUX EVERYWHERE IN THE MODEL BASED ON THE 
             DEFAULT CRITERION. PLEASE CHECK THE VALUE OF THE AVERAGE HEAT FLUX 
             DURING THE CURRENT ITERATION TO VERIFY THAT THE HEAT FLUX IS SMALL 
             ENOUGH TO BE TREATED AS ZERO. IF NOT, PLEASE USE THE SOLUTION 
             CONTROLS TO RESET THE CRITERION FOR ZERO HEAT FLUX.

 ITERATION SUMMARY FOR THE INCREMENT:   2 TOTAL ITERATIONS, OF WHICH
   0 ARE SEVERE DISCONTINUITY ITERATIONS AND  2 ARE EQUILIBRIUM ITERATIONS.

 TIME INCREMENT COMPLETED  1.000E+03,  FRACTION OF STEP COMPLETED  8.000E-02
 STEP TIME COMPLETED       8.000E+03,  TOTAL TIME COMPLETED        8.000E+03


  INCREMENT     9 STARTS. ATTEMPT NUMBER  1, TIME INCREMENT  1.000E+03
 
	UNSYMMETRIC NEW DIRECT SPARSE SOLVER RUNNING ON
 	1 HOST x 1 MPI RANK PER HOST x 4 THREADS PER RANK
        NUMBER OF EQUATIONS:  32172
        NUMBER OF RHS:        1
        NUMBER OF FLOPS:      1.373e+09
        SOLVER ELAPSED TIME:  31ms

               CONVERGENCE CHECKS FOR EQUILIBRIUM ITERATION     1


 AVERAGE FORCE                      1.745E+04   TIME AVG. FORCE       9.908E+03
 LARGEST SCALED RESIDUAL FORCE      3.808E+03   AT NODE      12241   DOF  2
   INSTANCE: ELASTIC-PLASTIC-PLATE-1                                                         
  CORRESPONDING RESIDUAL FORCE      3.808E+03
 LARGEST INCREMENT OF DISP.         6.000E-06   AT NODE          3   DOF  2
   INSTANCE: ELASTIC-PLASTIC-PLATE-1                                                         
 LARGEST CORRECTION TO DISP.        5.834E-07   AT NODE      11260   DOF  2
   INSTANCE: ELASTIC-PLASTIC-PLATE-1                                                         
          FORCE     EQUILIBRIUM NOT ACHIEVED WITHIN TOLERANCE.

 AVERAGE HEAT FLUX                  8.878E-13   TIME AVG. HEAT FLUX   1.000E-02
 LARGEST RESIDUAL HEAT FLUX         1.237E-11   AT NODE       2815   DOF 11
   INSTANCE: ELASTIC-PLASTIC-PLATE-1                                                         
 LARGEST INCREMENT OF TEMP.        -5.056E-02   AT NODE        261   DOF 11
   INSTANCE: ELASTIC-PLASTIC-PLATE-1                                                         
 LARGEST CORRECTION TO TEMP.        8.115E-02   AT NODE       2815   DOF 11
   INSTANCE: ELASTIC-PLASTIC-PLATE-1                                                         
          THERE IS ZERO HEAT FLUX EVERYWHERE
 

 ***WARNING: THERE IS ZERO HEAT FLUX EVERYWHERE IN THE MODEL BASED ON THE 
             DEFAULT CRITERION. PLEASE CHECK THE VALUE OF THE AVERAGE HEAT FLUX 
             DURING THE CURRENT ITERATION TO VERIFY THAT THE HEAT FLUX IS SMALL 
             ENOUGH TO BE TREATED AS ZERO. IF NOT, PLEASE USE THE SOLUTION 
             CONTROLS TO RESET THE CRITERION FOR ZERO HEAT FLUX.
 
	UNSYMMETRIC NEW DIRECT SPARSE SOLVER RUNNING ON
 	1 HOST x 1 MPI RANK PER HOST x 4 THREADS PER RANK
        NUMBER OF EQUATIONS:  32172
        NUMBER OF RHS:        1
        NUMBER OF FLOPS:      1.373e+09
        SOLVER ELAPSED TIME:  36ms

               CONVERGENCE CHECKS FOR EQUILIBRIUM ITERATION     2


 AVERAGE FORCE                      1.746E+04   TIME AVG. FORCE       9.909E+03
 LARGEST SCALED RESIDUAL FORCE      -162.       AT NODE      13571   DOF  2
   INSTANCE: ELASTIC-PLASTIC-PLATE-1                                                         
  CORRESPONDING RESIDUAL FORCE      -162.    
 LARGEST INCREMENT OF DISP.         6.000E-06   AT NODE          3   DOF  2
   INSTANCE: ELASTIC-PLASTIC-PLATE-1                                                         
 LARGEST CORRECTION TO DISP.        3.792E-08   AT NODE       6747   DOF  1
   INSTANCE: ELASTIC-PLASTIC-PLATE-1                                                         
          FORCE     EQUILIBRIUM NOT ACHIEVED WITHIN TOLERANCE.

 AVERAGE HEAT FLUX                  8.674E-13   TIME AVG. HEAT FLUX   1.000E-02
 LARGEST RESIDUAL HEAT FLUX         1.603E-11   AT NODE       2990   DOF 11
   INSTANCE: ELASTIC-PLASTIC-PLATE-1                                                         
 LARGEST INCREMENT OF TEMP.         8.211E-02   AT NODE       2815   DOF 11
   INSTANCE: ELASTIC-PLASTIC-PLATE-1                                                         
 LARGEST CORRECTION TO TEMP.        4.394E-02   AT NODE       2815   DOF 11
   INSTANCE: ELASTIC-PLASTIC-PLATE-1                                                         
          THERE IS ZERO HEAT FLUX EVERYWHERE
 

 ***WARNING: THERE IS ZERO HEAT FLUX EVERYWHERE IN THE MODEL BASED ON THE 
             DEFAULT CRITERION. PLEASE CHECK THE VALUE OF THE AVERAGE HEAT FLUX 
             DURING THE CURRENT ITERATION TO VERIFY THAT THE HEAT FLUX IS SMALL 
             ENOUGH TO BE TREATED AS ZERO. IF NOT, PLEASE USE THE SOLUTION 
             CONTROLS TO RESET THE CRITERION FOR ZERO HEAT FLUX.
 
	UNSYMMETRIC NEW DIRECT SPARSE SOLVER RUNNING ON
 	1 HOST x 1 MPI RANK PER HOST x 4 THREADS PER RANK
        NUMBER OF EQUATIONS:  32172
        NUMBER OF RHS:        1
        NUMBER OF FLOPS:      1.373e+09
        SOLVER ELAPSED TIME:  34ms

               CONVERGENCE CHECKS FOR EQUILIBRIUM ITERATION     3


 AVERAGE FORCE                      1.746E+04   TIME AVG. FORCE       9.909E+03
 LARGEST SCALED RESIDUAL FORCE       1.79       AT NODE       3335   DOF  2
   INSTANCE: ELASTIC-PLASTIC-PLATE-1                                                         
  CORRESPONDING RESIDUAL FORCE       1.79    
 LARGEST INCREMENT OF DISP.         6.000E-06   AT NODE          3   DOF  2
   INSTANCE: ELASTIC-PLASTIC-PLATE-1                                                         
 LARGEST CORRECTION TO DISP.       -1.128E-09   AT NODE       4007   DOF  2
   INSTANCE: ELASTIC-PLASTIC-PLATE-1                                                         
          THE FORCE     EQUILIBRIUM EQUATIONS HAVE CONVERGED

 AVERAGE HEAT FLUX                  8.661E-13   TIME AVG. HEAT FLUX   1.000E-02
 LARGEST RESIDUAL HEAT FLUX         3.440E-12   AT NODE       3037   DOF 11
   INSTANCE: ELASTIC-PLASTIC-PLATE-1                                                         
 LARGEST INCREMENT OF TEMP.        -6.795E-02   AT NODE        259   DOF 11
   INSTANCE: ELASTIC-PLASTIC-PLATE-1                                                         
 LARGEST CORRECTION TO TEMP.        5.533E-02   AT NODE       2990   DOF 11
   INSTANCE: ELASTIC-PLASTIC-PLATE-1                                                         
          THERE IS ZERO HEAT FLUX EVERYWHERE
 

 ***WARNING: THERE IS ZERO HEAT FLUX EVERYWHERE IN THE MODEL BASED ON THE 
             DEFAULT CRITERION. PLEASE CHECK THE VALUE OF THE AVERAGE HEAT FLUX 
             DURING THE CURRENT ITERATION TO VERIFY THAT THE HEAT FLUX IS SMALL 
             ENOUGH TO BE TREATED AS ZERO. IF NOT, PLEASE USE THE SOLUTION 
             CONTROLS TO RESET THE CRITERION FOR ZERO HEAT FLUX.

 ITERATION SUMMARY FOR THE INCREMENT:   3 TOTAL ITERATIONS, OF WHICH
   0 ARE SEVERE DISCONTINUITY ITERATIONS AND  3 ARE EQUILIBRIUM ITERATIONS.

 TIME INCREMENT COMPLETED  1.000E+03,  FRACTION OF STEP COMPLETED  9.000E-02
 STEP TIME COMPLETED       9.000E+03,  TOTAL TIME COMPLETED        9.000E+03


  INCREMENT    10 STARTS. ATTEMPT NUMBER  1, TIME INCREMENT  1.000E+03
 
	UNSYMMETRIC NEW DIRECT SPARSE SOLVER RUNNING ON
 	1 HOST x 1 MPI RANK PER HOST x 4 THREADS PER RANK
        NUMBER OF EQUATIONS:  32172
        NUMBER OF RHS:        1
        NUMBER OF FLOPS:      1.373e+09
        SOLVER ELAPSED TIME:  30ms

               CONVERGENCE CHECKS FOR EQUILIBRIUM ITERATION     1


 AVERAGE FORCE                      1.869E+04   TIME AVG. FORCE       1.079E+04
 LARGEST SCALED RESIDUAL FORCE     -7.007E+03   AT NODE      12826   DOF  2
   INSTANCE: ELASTIC-PLASTIC-PLATE-1                                                         
  CORRESPONDING RESIDUAL FORCE     -7.007E+03
 LARGEST INCREMENT OF DISP.         6.029E-06   AT NODE       8446   DOF  2
   INSTANCE: ELASTIC-PLASTIC-PLATE-1                                                         
 LARGEST CORRECTION TO DISP.        7.480E-07   AT NODE      10523   DOF  1
   INSTANCE: ELASTIC-PLASTIC-PLATE-1                                                         
          FORCE     EQUILIBRIUM NOT ACHIEVED WITHIN TOLERANCE.

 AVERAGE HEAT FLUX                  9.424E-13   TIME AVG. HEAT FLUX   1.000E-02
 LARGEST RESIDUAL HEAT FLUX        -9.373E-12   AT NODE       3037   DOF 11
   INSTANCE: ELASTIC-PLASTIC-PLATE-1                                                         
 LARGEST INCREMENT OF TEMP.        -4.692E-02   AT NODE        262   DOF 11
   INSTANCE: ELASTIC-PLASTIC-PLATE-1                                                         
 LARGEST CORRECTION TO TEMP.        2.956E-02   AT NODE        259   DOF 11
   INSTANCE: ELASTIC-PLASTIC-PLATE-1                                                         
          THERE IS ZERO HEAT FLUX EVERYWHERE
 

 ***WARNING: THERE IS ZERO HEAT FLUX EVERYWHERE IN THE MODEL BASED ON THE 
             DEFAULT CRITERION. PLEASE CHECK THE VALUE OF THE AVERAGE HEAT FLUX 
             DURING THE CURRENT ITERATION TO VERIFY THAT THE HEAT FLUX IS SMALL 
             ENOUGH TO BE TREATED AS ZERO. IF NOT, PLEASE USE THE SOLUTION 
             CONTROLS TO RESET THE CRITERION FOR ZERO HEAT FLUX.
 
	UNSYMMETRIC NEW DIRECT SPARSE SOLVER RUNNING ON
 	1 HOST x 1 MPI RANK PER HOST x 4 THREADS PER RANK
        NUMBER OF EQUATIONS:  32172
        NUMBER OF RHS:        1
        NUMBER OF FLOPS:      1.373e+09
        SOLVER ELAPSED TIME:  31ms

               CONVERGENCE CHECKS FOR EQUILIBRIUM ITERATION     2


 AVERAGE FORCE                      1.871E+04   TIME AVG. FORCE       1.079E+04
 LARGEST SCALED RESIDUAL FORCE      -304.       AT NODE      12942   DOF  2
   INSTANCE: ELASTIC-PLASTIC-PLATE-1                                                         
  CORRESPONDING RESIDUAL FORCE      -304.    
 LARGEST INCREMENT OF DISP.         6.000E-06   AT NODE          3   DOF  2
   INSTANCE: ELASTIC-PLASTIC-PLATE-1                                                         
 LARGEST CORRECTION TO DISP.        1.323E-07   AT NODE       8915   DOF  1
   INSTANCE: ELASTIC-PLASTIC-PLATE-1                                                         
          FORCE     EQUILIBRIUM NOT ACHIEVED WITHIN TOLERANCE.

 AVERAGE HEAT FLUX                  9.329E-13   TIME AVG. HEAT FLUX   1.000E-02
 LARGEST RESIDUAL HEAT FLUX         1.536E-11   AT NODE       3037   DOF 11
   INSTANCE: ELASTIC-PLASTIC-PLATE-1                                                         
 LARGEST INCREMENT OF TEMP.        -6.980E-02   AT NODE        259   DOF 11
   INSTANCE: ELASTIC-PLASTIC-PLATE-1                                                         
 LARGEST CORRECTION TO TEMP.       -3.142E-02   AT NODE        259   DOF 11
   INSTANCE: ELASTIC-PLASTIC-PLATE-1                                                         
          THERE IS ZERO HEAT FLUX EVERYWHERE
 

 ***WARNING: THERE IS ZERO HEAT FLUX EVERYWHERE IN THE MODEL BASED ON THE 
             DEFAULT CRITERION. PLEASE CHECK THE VALUE OF THE AVERAGE HEAT FLUX 
             DURING THE CURRENT ITERATION TO VERIFY THAT THE HEAT FLUX IS SMALL 
             ENOUGH TO BE TREATED AS ZERO. IF NOT, PLEASE USE THE SOLUTION 
             CONTROLS TO RESET THE CRITERION FOR ZERO HEAT FLUX.
 
	UNSYMMETRIC NEW DIRECT SPARSE SOLVER RUNNING ON
 	1 HOST x 1 MPI RANK PER HOST x 4 THREADS PER RANK
        NUMBER OF EQUATIONS:  32172
        NUMBER OF RHS:        1
        NUMBER OF FLOPS:      1.373e+09
        SOLVER ELAPSED TIME:  31ms

               CONVERGENCE CHECKS FOR EQUILIBRIUM ITERATION     3


 AVERAGE FORCE                      1.871E+04   TIME AVG. FORCE       1.079E+04
 LARGEST SCALED RESIDUAL FORCE       13.8       AT NODE      12778   DOF  2
   INSTANCE: ELASTIC-PLASTIC-PLATE-1                                                         
  CORRESPONDING RESIDUAL FORCE       13.8    
 LARGEST INCREMENT OF DISP.         6.000E-06   AT NODE          3   DOF  2
   INSTANCE: ELASTIC-PLASTIC-PLATE-1                                                         
 LARGEST CORRECTION TO DISP.        1.128E-09   AT NODE      12047   DOF  1
   INSTANCE: ELASTIC-PLASTIC-PLATE-1                                                         
          THE FORCE     EQUILIBRIUM EQUATIONS HAVE CONVERGED

 AVERAGE HEAT FLUX                  9.278E-13   TIME AVG. HEAT FLUX   1.000E-02
 LARGEST RESIDUAL HEAT FLUX         7.581E-12   AT NODE       3426   DOF 11
   INSTANCE: ELASTIC-PLASTIC-PLATE-1                                                         
 LARGEST INCREMENT OF TEMP.        -5.559E-02   AT NODE        259   DOF 11
   INSTANCE: ELASTIC-PLASTIC-PLATE-1                                                         
 LARGEST CORRECTION TO TEMP.        4.241E-02   AT NODE       3037   DOF 11
   INSTANCE: ELASTIC-PLASTIC-PLATE-1                                                         
          THERE IS ZERO HEAT FLUX EVERYWHERE
 

 ***WARNING: THERE IS ZERO HEAT FLUX EVERYWHERE IN THE MODEL BASED ON THE 
             DEFAULT CRITERION. PLEASE CHECK THE VALUE OF THE AVERAGE HEAT FLUX 
             DURING THE CURRENT ITERATION TO VERIFY THAT THE HEAT FLUX IS SMALL 
             ENOUGH TO BE TREATED AS ZERO. IF NOT, PLEASE USE THE SOLUTION 
             CONTROLS TO RESET THE CRITERION FOR ZERO HEAT FLUX.

 ITERATION SUMMARY FOR THE INCREMENT:   3 TOTAL ITERATIONS, OF WHICH
   0 ARE SEVERE DISCONTINUITY ITERATIONS AND  3 ARE EQUILIBRIUM ITERATIONS.

 TIME INCREMENT COMPLETED  1.000E+03,  FRACTION OF STEP COMPLETED  0.100    
 STEP TIME COMPLETED       1.000E+04,  TOTAL TIME COMPLETED        1.000E+04


  INCREMENT    11 STARTS. ATTEMPT NUMBER  1, TIME INCREMENT  1.000E+03
 
	UNSYMMETRIC NEW DIRECT SPARSE SOLVER RUNNING ON
 	1 HOST x 1 MPI RANK PER HOST x 4 THREADS PER RANK
        NUMBER OF EQUATIONS:  32172
        NUMBER OF RHS:        1
        NUMBER OF FLOPS:      1.373e+09
        SOLVER ELAPSED TIME:  33ms

[...]
 LARGEST SCALED RESIDUAL FORCE       89.6       AT NODE       8350   DOF  2
   INSTANCE: ELASTIC-PLASTIC-PLATE-1                                                         
  CORRESPONDING RESIDUAL FORCE       89.6    
 LARGEST INCREMENT OF DISP.         6.238E-06   AT NODE          5   DOF  2
   INSTANCE: ELASTIC-PLASTIC-PLATE-1                                                         
 LARGEST CORRECTION TO DISP.        5.350E-09   AT NODE        264   DOF  1
   INSTANCE: ELASTIC-PLASTIC-PLATE-1                                                         
          THE FORCE     EQUILIBRIUM EQUATIONS HAVE CONVERGED

 AVERAGE HEAT FLUX                  2.295E-12   TIME AVG. HEAT FLUX   1.000E-02
 LARGEST RESIDUAL HEAT FLUX         1.598E-12   AT NODE       2670   DOF 11
   INSTANCE: ELASTIC-PLASTIC-PLATE-1                                                         
 LARGEST INCREMENT OF TEMP.        -3.309E-02   AT NODE        246   DOF 11
   INSTANCE: ELASTIC-PLASTIC-PLATE-1                                                         
 LARGEST CORRECTION TO TEMP.        2.522E-03   AT NODE       3454   DOF 11
   INSTANCE: ELASTIC-PLASTIC-PLATE-1                                                         
          THERE IS ZERO HEAT FLUX EVERYWHERE
 

 ***WARNING: THERE IS ZERO HEAT FLUX EVERYWHERE IN THE MODEL BASED ON THE 
             DEFAULT CRITERION. PLEASE CHECK THE VALUE OF THE AVERAGE HEAT FLUX 
             DURING THE CURRENT ITERATION TO VERIFY THAT THE HEAT FLUX IS SMALL 
             ENOUGH TO BE TREATED AS ZERO. IF NOT, PLEASE USE THE SOLUTION 
             CONTROLS TO RESET THE CRITERION FOR ZERO HEAT FLUX.

 ITERATION SUMMARY FOR THE INCREMENT:   1 TOTAL ITERATIONS, OF WHICH
   0 ARE SEVERE DISCONTINUITY ITERATIONS AND  1 ARE EQUILIBRIUM ITERATIONS.

 TIME INCREMENT COMPLETED  1.000E+03,  FRACTION OF STEP COMPLETED  0.930    
 STEP TIME COMPLETED       9.300E+04,  TOTAL TIME COMPLETED        9.300E+04


  INCREMENT    94 STARTS. ATTEMPT NUMBER  1, TIME INCREMENT  1.000E+03
 
	UNSYMMETRIC NEW DIRECT SPARSE SOLVER RUNNING ON
 	1 HOST x 1 MPI RANK PER HOST x 4 THREADS PER RANK
        NUMBER OF EQUATIONS:  32172
        NUMBER OF RHS:        1
        NUMBER OF FLOPS:      1.373e+09
        SOLVER ELAPSED TIME:  35ms

               CONVERGENCE CHECKS FOR EQUILIBRIUM ITERATION     1


 AVERAGE FORCE                      3.917E+04   TIME AVG. FORCE       3.016E+04
 LARGEST SCALED RESIDUAL FORCE       22.2       AT NODE       8229   DOF  2
   INSTANCE: ELASTIC-PLASTIC-PLATE-1                                                         
  CORRESPONDING RESIDUAL FORCE       22.2    
 LARGEST INCREMENT OF DISP.         6.237E-06   AT NODE          5   DOF  2
   INSTANCE: ELASTIC-PLASTIC-PLATE-1                                                         
 LARGEST CORRECTION TO DISP.        5.313E-09   AT NODE      11882   DOF  1
   INSTANCE: ELASTIC-PLASTIC-PLATE-1                                                         
          THE FORCE     EQUILIBRIUM EQUATIONS HAVE CONVERGED

 AVERAGE HEAT FLUX                  2.301E-12   TIME AVG. HEAT FLUX   1.000E-02
 LARGEST RESIDUAL HEAT FLUX         1.607E-12   AT NODE       2670   DOF 11
   INSTANCE: ELASTIC-PLASTIC-PLATE-1                                                         
 LARGEST INCREMENT OF TEMP.        -3.297E-02   AT NODE        246   DOF 11
   INSTANCE: ELASTIC-PLASTIC-PLATE-1                                                         
 LARGEST CORRECTION TO TEMP.       -2.620E-03   AT NODE       1293   DOF 11
   INSTANCE: ELASTIC-PLASTIC-PLATE-1                                                         
          THERE IS ZERO HEAT FLUX EVERYWHERE
 

 ***WARNING: THERE IS ZERO HEAT FLUX EVERYWHERE IN THE MODEL BASED ON THE 
             DEFAULT CRITERION. PLEASE CHECK THE VALUE OF THE AVERAGE HEAT FLUX 
             DURING THE CURRENT ITERATION TO VERIFY THAT THE HEAT FLUX IS SMALL 
             ENOUGH TO BE TREATED AS ZERO. IF NOT, PLEASE USE THE SOLUTION 
             CONTROLS TO RESET THE CRITERION FOR ZERO HEAT FLUX.

 ITERATION SUMMARY FOR THE INCREMENT:   1 TOTAL ITERATIONS, OF WHICH
   0 ARE SEVERE DISCONTINUITY ITERATIONS AND  1 ARE EQUILIBRIUM ITERATIONS.

 TIME INCREMENT COMPLETED  1.000E+03,  FRACTION OF STEP COMPLETED  0.940    
 STEP TIME COMPLETED       9.400E+04,  TOTAL TIME COMPLETED        9.400E+04


  INCREMENT    95 STARTS. ATTEMPT NUMBER  1, TIME INCREMENT  1.000E+03
 
	UNSYMMETRIC NEW DIRECT SPARSE SOLVER RUNNING ON
 	1 HOST x 1 MPI RANK PER HOST x 4 THREADS PER RANK
        NUMBER OF EQUATIONS:  32172
        NUMBER OF RHS:        1
        NUMBER OF FLOPS:      1.373e+09
        SOLVER ELAPSED TIME:  41ms

               CONVERGENCE CHECKS FOR EQUILIBRIUM ITERATION     1


 AVERAGE FORCE                      3.927E+04   TIME AVG. FORCE       3.025E+04
 LARGEST SCALED RESIDUAL FORCE      -27.3       AT NODE      13261   DOF  2
   INSTANCE: ELASTIC-PLASTIC-PLATE-1                                                         
  CORRESPONDING RESIDUAL FORCE      -27.3    
 LARGEST INCREMENT OF DISP.         6.236E-06   AT NODE          5   DOF  2
   INSTANCE: ELASTIC-PLASTIC-PLATE-1                                                         
 LARGEST CORRECTION TO DISP.        5.075E-09   AT NODE      11882   DOF  1
   INSTANCE: ELASTIC-PLASTIC-PLATE-1                                                         
          THE FORCE     EQUILIBRIUM EQUATIONS HAVE CONVERGED

 AVERAGE HEAT FLUX                  2.308E-12   TIME AVG. HEAT FLUX   1.000E-02
 LARGEST RESIDUAL HEAT FLUX         1.660E-12   AT NODE       4402   DOF 11
   INSTANCE: ELASTIC-PLASTIC-PLATE-1                                                         
 LARGEST INCREMENT OF TEMP.        -3.275E-02   AT NODE        246   DOF 11
   INSTANCE: ELASTIC-PLASTIC-PLATE-1                                                         
 LARGEST CORRECTION TO TEMP.        3.486E-03   AT NODE       4402   DOF 11
   INSTANCE: ELASTIC-PLASTIC-PLATE-1                                                         
          THERE IS ZERO HEAT FLUX EVERYWHERE
 

 ***WARNING: THERE IS ZERO HEAT FLUX EVERYWHERE IN THE MODEL BASED ON THE 
             DEFAULT CRITERION. PLEASE CHECK THE VALUE OF THE AVERAGE HEAT FLUX 
             DURING THE CURRENT ITERATION TO VERIFY THAT THE HEAT FLUX IS SMALL 
             ENOUGH TO BE TREATED AS ZERO. IF NOT, PLEASE USE THE SOLUTION 
             CONTROLS TO RESET THE CRITERION FOR ZERO HEAT FLUX.

 ITERATION SUMMARY FOR THE INCREMENT:   1 TOTAL ITERATIONS, OF WHICH
   0 ARE SEVERE DISCONTINUITY ITERATIONS AND  1 ARE EQUILIBRIUM ITERATIONS.

 TIME INCREMENT COMPLETED  1.000E+03,  FRACTION OF STEP COMPLETED  0.950    
 STEP TIME COMPLETED       9.500E+04,  TOTAL TIME COMPLETED        9.500E+04


  INCREMENT    96 STARTS. ATTEMPT NUMBER  1, TIME INCREMENT  1.000E+03
 
	UNSYMMETRIC NEW DIRECT SPARSE SOLVER RUNNING ON
 	1 HOST x 1 MPI RANK PER HOST x 4 THREADS PER RANK
        NUMBER OF EQUATIONS:  32172
        NUMBER OF RHS:        1
        NUMBER OF FLOPS:      1.373e+09
        SOLVER ELAPSED TIME:  34ms

               CONVERGENCE CHECKS FOR EQUILIBRIUM ITERATION     1


 AVERAGE FORCE                      3.938E+04   TIME AVG. FORCE       3.035E+04
 LARGEST SCALED RESIDUAL FORCE      -3.79       AT NODE       2870   DOF  2
   INSTANCE: ELASTIC-PLASTIC-PLATE-1                                                         
  CORRESPONDING RESIDUAL FORCE      -3.79    
 LARGEST INCREMENT OF DISP.         6.234E-06   AT NODE          5   DOF  2
   INSTANCE: ELASTIC-PLASTIC-PLATE-1                                                         
 LARGEST CORRECTION TO DISP.        4.986E-09   AT NODE      11882   DOF  1
   INSTANCE: ELASTIC-PLASTIC-PLATE-1                                                         
          THE FORCE     EQUILIBRIUM EQUATIONS HAVE CONVERGED

 AVERAGE HEAT FLUX                  2.315E-12   TIME AVG. HEAT FLUX   1.000E-02
 LARGEST RESIDUAL HEAT FLUX         1.644E-12   AT NODE       4402   DOF 11
   INSTANCE: ELASTIC-PLASTIC-PLATE-1                                                         
 LARGEST INCREMENT OF TEMP.        -3.254E-02   AT NODE        246   DOF 11
   INSTANCE: ELASTIC-PLASTIC-PLATE-1                                                         
 LARGEST CORRECTION TO TEMP.       -2.214E-03   AT NODE       2058   DOF 11
   INSTANCE: ELASTIC-PLASTIC-PLATE-1                                                         
          THERE IS ZERO HEAT FLUX EVERYWHERE
 

 ***WARNING: THERE IS ZERO HEAT FLUX EVERYWHERE IN THE MODEL BASED ON THE 
             DEFAULT CRITERION. PLEASE CHECK THE VALUE OF THE AVERAGE HEAT FLUX 
             DURING THE CURRENT ITERATION TO VERIFY THAT THE HEAT FLUX IS SMALL 
             ENOUGH TO BE TREATED AS ZERO. IF NOT, PLEASE USE THE SOLUTION 
             CONTROLS TO RESET THE CRITERION FOR ZERO HEAT FLUX.

 ITERATION SUMMARY FOR THE INCREMENT:   1 TOTAL ITERATIONS, OF WHICH
   0 ARE SEVERE DISCONTINUITY ITERATIONS AND  1 ARE EQUILIBRIUM ITERATIONS.

 TIME INCREMENT COMPLETED  1.000E+03,  FRACTION OF STEP COMPLETED  0.960    
 STEP TIME COMPLETED       9.600E+04,  TOTAL TIME COMPLETED        9.600E+04


  INCREMENT    97 STARTS. ATTEMPT NUMBER  1, TIME INCREMENT  1.000E+03
 
	UNSYMMETRIC NEW DIRECT SPARSE SOLVER RUNNING ON
 	1 HOST x 1 MPI RANK PER HOST x 4 THREADS PER RANK
        NUMBER OF EQUATIONS:  32172
        NUMBER OF RHS:        1
        NUMBER OF FLOPS:      1.373e+09
        SOLVER ELAPSED TIME:  34ms

               CONVERGENCE CHECKS FOR EQUILIBRIUM ITERATION     1


 AVERAGE FORCE                      3.949E+04   TIME AVG. FORCE       3.044E+04
 LARGEST SCALED RESIDUAL FORCE       35.9       AT NODE       5458   DOF  2
   INSTANCE: ELASTIC-PLASTIC-PLATE-1                                                         
  CORRESPONDING RESIDUAL FORCE       35.9    
 LARGEST INCREMENT OF DISP.         6.233E-06   AT NODE          5   DOF  2
   INSTANCE: ELASTIC-PLASTIC-PLATE-1                                                         
 LARGEST CORRECTION TO DISP.        5.330E-09   AT NODE      11882   DOF  1
   INSTANCE: ELASTIC-PLASTIC-PLATE-1                                                         
          THE FORCE     EQUILIBRIUM EQUATIONS HAVE CONVERGED

 AVERAGE HEAT FLUX                  2.321E-12   TIME AVG. HEAT FLUX   1.000E-02
 LARGEST RESIDUAL HEAT FLUX         1.521E-12   AT NODE       2670   DOF 11
   INSTANCE: ELASTIC-PLASTIC-PLATE-1                                                         
 LARGEST INCREMENT OF TEMP.        -3.234E-02   AT NODE        246   DOF 11
   INSTANCE: ELASTIC-PLASTIC-PLATE-1                                                         
 LARGEST CORRECTION TO TEMP.       -3.011E-03   AT NODE       3821   DOF 11
   INSTANCE: ELASTIC-PLASTIC-PLATE-1                                                         
          THERE IS ZERO HEAT FLUX EVERYWHERE
 

 ***WARNING: THERE IS ZERO HEAT FLUX EVERYWHERE IN THE MODEL BASED ON THE 
             DEFAULT CRITERION. PLEASE CHECK THE VALUE OF THE AVERAGE HEAT FLUX 
             DURING THE CURRENT ITERATION TO VERIFY THAT THE HEAT FLUX IS SMALL 
             ENOUGH TO BE TREATED AS ZERO. IF NOT, PLEASE USE THE SOLUTION 
             CONTROLS TO RESET THE CRITERION FOR ZERO HEAT FLUX.

 ITERATION SUMMARY FOR THE INCREMENT:   1 TOTAL ITERATIONS, OF WHICH
   0 ARE SEVERE DISCONTINUITY ITERATIONS AND  1 ARE EQUILIBRIUM ITERATIONS.

 TIME INCREMENT COMPLETED  1.000E+03,  FRACTION OF STEP COMPLETED  0.970    
 STEP TIME COMPLETED       9.700E+04,  TOTAL TIME COMPLETED        9.700E+04


  INCREMENT    98 STARTS. ATTEMPT NUMBER  1, TIME INCREMENT  1.000E+03
 
	UNSYMMETRIC NEW DIRECT SPARSE SOLVER RUNNING ON
 	1 HOST x 1 MPI RANK PER HOST x 4 THREADS PER RANK
        NUMBER OF EQUATIONS:  32172
        NUMBER OF RHS:        1
        NUMBER OF FLOPS:      1.373e+09
        SOLVER ELAPSED TIME:  32ms

               CONVERGENCE CHECKS FOR EQUILIBRIUM ITERATION     1


 AVERAGE FORCE                      3.960E+04   TIME AVG. FORCE       3.054E+04
 LARGEST SCALED RESIDUAL FORCE      -15.9       AT NODE       1234   DOF  2
   INSTANCE: ELASTIC-PLASTIC-PLATE-1                                                         
  CORRESPONDING RESIDUAL FORCE      -15.9    
 LARGEST INCREMENT OF DISP.         6.233E-06   AT NODE          5   DOF  2
   INSTANCE: ELASTIC-PLASTIC-PLATE-1                                                         
 LARGEST CORRECTION TO DISP.        5.106E-09   AT NODE      11882   DOF  1
   INSTANCE: ELASTIC-PLASTIC-PLATE-1                                                         
          THE FORCE     EQUILIBRIUM EQUATIONS HAVE CONVERGED

 AVERAGE HEAT FLUX                  2.327E-12   TIME AVG. HEAT FLUX   1.000E-02
 LARGEST RESIDUAL HEAT FLUX         1.409E-12   AT NODE       4402   DOF 11
   INSTANCE: ELASTIC-PLASTIC-PLATE-1                                                         
 LARGEST INCREMENT OF TEMP.        -3.224E-02   AT NODE        247   DOF 11
   INSTANCE: ELASTIC-PLASTIC-PLATE-1                                                         
 LARGEST CORRECTION TO TEMP.       -2.621E-03   AT NODE       1469   DOF 11
   INSTANCE: ELASTIC-PLASTIC-PLATE-1                                                         
          THERE IS ZERO HEAT FLUX EVERYWHERE
 

 ***WARNING: THERE IS ZERO HEAT FLUX EVERYWHERE IN THE MODEL BASED ON THE 
             DEFAULT CRITERION. PLEASE CHECK THE VALUE OF THE AVERAGE HEAT FLUX 
             DURING THE CURRENT ITERATION TO VERIFY THAT THE HEAT FLUX IS SMALL 
             ENOUGH TO BE TREATED AS ZERO. IF NOT, PLEASE USE THE SOLUTION 
             CONTROLS TO RESET THE CRITERION FOR ZERO HEAT FLUX.

 ITERATION SUMMARY FOR THE INCREMENT:   1 TOTAL ITERATIONS, OF WHICH
   0 ARE SEVERE DISCONTINUITY ITERATIONS AND  1 ARE EQUILIBRIUM ITERATIONS.

 TIME INCREMENT COMPLETED  1.000E+03,  FRACTION OF STEP COMPLETED  0.980    
 STEP TIME COMPLETED       9.800E+04,  TOTAL TIME COMPLETED        9.800E+04


  INCREMENT    99 STARTS. ATTEMPT NUMBER  1, TIME INCREMENT  1.000E+03
 
	UNSYMMETRIC NEW DIRECT SPARSE SOLVER RUNNING ON
 	1 HOST x 1 MPI RANK PER HOST x 4 THREADS PER RANK
        NUMBER OF EQUATIONS:  32172
        NUMBER OF RHS:        1
        NUMBER OF FLOPS:      1.373e+09
        SOLVER ELAPSED TIME:  31ms

               CONVERGENCE CHECKS FOR EQUILIBRIUM ITERATION     1


 AVERAGE FORCE                      3.970E+04   TIME AVG. FORCE       3.063E+04
 LARGEST SCALED RESIDUAL FORCE       12.8       AT NODE      11752   DOF  2
   INSTANCE: ELASTIC-PLASTIC-PLATE-1                                                         
  CORRESPONDING RESIDUAL FORCE       12.8    
 LARGEST INCREMENT OF DISP.         6.232E-06   AT NODE          5   DOF  2
   INSTANCE: ELASTIC-PLASTIC-PLATE-1                                                         
 LARGEST CORRECTION TO DISP.        5.166E-09   AT NODE      11882   DOF  1
   INSTANCE: ELASTIC-PLASTIC-PLATE-1                                                         
          THE FORCE     EQUILIBRIUM EQUATIONS HAVE CONVERGED

 AVERAGE HEAT FLUX                  2.333E-12   TIME AVG. HEAT FLUX   1.000E-02
 LARGEST RESIDUAL HEAT FLUX         1.394E-12   AT NODE       4402   DOF 11
   INSTANCE: ELASTIC-PLASTIC-PLATE-1                                                         
 LARGEST INCREMENT OF TEMP.        -3.213E-02   AT NODE        246   DOF 11
   INSTANCE: ELASTIC-PLASTIC-PLATE-1                                                         
 LARGEST CORRECTION TO TEMP.       -2.563E-03   AT NODE       1234   DOF 11
   INSTANCE: ELASTIC-PLASTIC-PLATE-1                                                         
          THERE IS ZERO HEAT FLUX EVERYWHERE
 

 ***WARNING: THERE IS ZERO HEAT FLUX EVERYWHERE IN THE MODEL BASED ON THE 
             DEFAULT CRITERION. PLEASE CHECK THE VALUE OF THE AVERAGE HEAT FLUX 
             DURING THE CURRENT ITERATION TO VERIFY THAT THE HEAT FLUX IS SMALL 
             ENOUGH TO BE TREATED AS ZERO. IF NOT, PLEASE USE THE SOLUTION 
             CONTROLS TO RESET THE CRITERION FOR ZERO HEAT FLUX.

 ITERATION SUMMARY FOR THE INCREMENT:   1 TOTAL ITERATIONS, OF WHICH
   0 ARE SEVERE DISCONTINUITY ITERATIONS AND  1 ARE EQUILIBRIUM ITERATIONS.

 TIME INCREMENT COMPLETED  1.000E+03,  FRACTION OF STEP COMPLETED  0.990    
 STEP TIME COMPLETED       9.900E+04,  TOTAL TIME COMPLETED        9.900E+04


  INCREMENT   100 STARTS. ATTEMPT NUMBER  1, TIME INCREMENT  1.000E+03
 
	UNSYMMETRIC NEW DIRECT SPARSE SOLVER RUNNING ON
 	1 HOST x 1 MPI RANK PER HOST x 4 THREADS PER RANK
        NUMBER OF EQUATIONS:  32172
        NUMBER OF RHS:        1
        NUMBER OF FLOPS:      1.373e+09
        SOLVER ELAPSED TIME:  36ms

               CONVERGENCE CHECKS FOR EQUILIBRIUM ITERATION     1


 AVERAGE FORCE                      3.981E+04   TIME AVG. FORCE       3.072E+04
 LARGEST SCALED RESIDUAL FORCE       74.5       AT NODE        882   DOF  2
   INSTANCE: ELASTIC-PLASTIC-PLATE-1                                                         
  CORRESPONDING RESIDUAL FORCE       74.5    
 LARGEST INCREMENT OF DISP.         6.231E-06   AT NODE          5   DOF  2
   INSTANCE: ELASTIC-PLASTIC-PLATE-1                                                         
 LARGEST CORRECTION TO DISP.        5.264E-09   AT NODE      11882   DOF  1
   INSTANCE: ELASTIC-PLASTIC-PLATE-1                                                         
          THE FORCE     EQUILIBRIUM EQUATIONS HAVE CONVERGED

 AVERAGE HEAT FLUX                  2.339E-12   TIME AVG. HEAT FLUX   1.000E-02
 LARGEST RESIDUAL HEAT FLUX         1.385E-12   AT NODE       2918   DOF 11
   INSTANCE: ELASTIC-PLASTIC-PLATE-1                                                         
 LARGEST INCREMENT OF TEMP.        -3.209E-02   AT NODE        246   DOF 11
   INSTANCE: ELASTIC-PLASTIC-PLATE-1                                                         
 LARGEST CORRECTION TO TEMP.        3.008E-03   AT NODE       3338   DOF 11
   INSTANCE: ELASTIC-PLASTIC-PLATE-1                                                         
          THERE IS ZERO HEAT FLUX EVERYWHERE
 

 ***WARNING: THERE IS ZERO HEAT FLUX EVERYWHERE IN THE MODEL BASED ON THE 
             DEFAULT CRITERION. PLEASE CHECK THE VALUE OF THE AVERAGE HEAT FLUX 
             DURING THE CURRENT ITERATION TO VERIFY THAT THE HEAT FLUX IS SMALL 
             ENOUGH TO BE TREATED AS ZERO. IF NOT, PLEASE USE THE SOLUTION 
             CONTROLS TO RESET THE CRITERION FOR ZERO HEAT FLUX.

 ITERATION SUMMARY FOR THE INCREMENT:   1 TOTAL ITERATIONS, OF WHICH
   0 ARE SEVERE DISCONTINUITY ITERATIONS AND  1 ARE EQUILIBRIUM ITERATIONS.

 TIME INCREMENT COMPLETED  1.000E+03,  FRACTION OF STEP COMPLETED   1.00    
 STEP TIME COMPLETED       1.000E+05,  TOTAL TIME COMPLETED        1.000E+05


          THE ANALYSIS HAS BEEN COMPLETED



     ANALYSIS SUMMARY:
     TOTAL OF        100  INCREMENTS
                       0  CUTBACKS IN AUTOMATIC INCREMENTATION
                     151  ITERATIONS INCLUDING CONTACT ITERATIONS IF PRESENT
                     151  PASSES THROUGH THE EQUATION SOLVER OF WHICH 
                     151  INVOLVE MATRIX DECOMPOSITION, INCLUDING
                       0  DECOMPOSITION(S) OF THE MASS MATRIX
                       1  REORDERING OF EQUATIONS TO MINIMIZE WAVEFRONT
                       0  ADDITIONAL RESIDUAL EVALUATIONS FOR LINE SEARCHES
                       0  ADDITIONAL OPERATOR EVALUATIONS FOR LINE SEARCHES
                       1  WARNING MESSAGES DURING USER INPUT PROCESSING
                  700187  WARNING MESSAGES DURING ANALYSIS
                  700036  ANALYSIS WARNINGS ARE NUMERICAL PROBLEM MESSAGES
                       0  ANALYSIS WARNINGS ARE NEGATIVE EIGENVALUE MESSAGES
                       0  ERROR MESSAGES



     JOB TIME SUMMARY
       USER TIME (SEC)      =      51.    
       SYSTEM TIME (SEC)    =      7.6    
       TOTAL CPU TIME (SEC) =      59.    
       WALLCLOCK TIME (SEC) =           34
       MEMORY PEAK (GB)     =            0
