1

   Abaqus 2023                                  Date 08-Dec-2024   Time 19:26:49
   For use by CSC_ IT CENTER FOR SCIENCE LTD under license from Dassault Systemes or its subsidiary.

                                                                                 
                                                                                 
 STEP    1     INCREMENT     1     STEP TIME    0.00    


                        S T E P       1     C O U P L E D - T E M P E R A T U R E - D I S P L A C E M E N T   A N A L Y S I S


                                                                                          

          FIXED TIME INCREMENTS
          TIME INCREMENT IS                                     360.    
          TIME PERIOD IS                                       1.800E+03

          CREEP AND SWELLING EFFECTS ARE OMITTED IN THIS STEP
          THE RATE DEPENDENCY WILL BE CONSIDERED IN THIS STEP

          CREEP AND SWELLING EFFECTS WILL BE IGNORED.

 CONVERGENCE TOLERANCE PARAMETERS FOR FORCE    
     CRITERION FOR RESIDUAL FORCE     FOR A NONLINEAR PROBLEM          5.000E-03
     CRITERION FOR DISP.    CORRECTION IN A NONLINEAR PROBLEM          1.000E-02
     INITIAL VALUE OF TIME AVERAGE FORCE                               1.000E-02
     AVERAGE FORCE     IS TIME AVERAGE FORCE    
     ALTERNATE CRIT. FOR RESIDUAL FORCE     FOR A NONLINEAR PROBLEM    2.000E-02
     CRITERION FOR ZERO FORCE     RELATIVE TO TIME AVRG. FORCE         1.000E-05
     CRITERION FOR RESIDUAL FORCE     WHEN THERE IS ZERO FLUX          1.000E-05
     CRITERION FOR DISP.    CORRECTION WHEN THERE IS ZERO FLUX         1.000E-03
     CRITERION FOR RESIDUAL FORCE     FOR A LINEAR INCREMENT           1.000E-08
     FIELD CONVERSION RATIO                                             1.00    
     CRITERION FOR ZERO FORCE     REL. TO TIME AVRG. MAX. FORCE        1.000E-05
     CRITERION FOR ZERO DISP.    RELATIVE TO CHARACTERISTIC LENGTH     1.000E-08

 CONVERGENCE TOLERANCE PARAMETERS FOR HEAT FLUX
     CRITERION FOR RESIDUAL HEAT FLUX FOR A NONLINEAR PROBLEM          5.000E-03
     CRITERION FOR TEMP.    CORRECTION IN A NONLINEAR PROBLEM          1.000E-02
     INITIAL VALUE OF TIME AVERAGE HEAT FLUX                           1.000E-02
     AVERAGE HEAT FLUX IS TIME AVERAGE HEAT FLUX
     ALTERNATE CRIT. FOR RESIDUAL HEAT FLUX FOR A NONLINEAR PROBLEM    2.000E-02
     CRITERION FOR ZERO HEAT FLUX RELATIVE TO TIME AVRG. HEAT FLUX     1.000E-05
     CRITERION FOR RESIDUAL HEAT FLUX WHEN THERE IS ZERO FLUX          1.000E-05
     CRITERION FOR TEMP.    CORRECTION WHEN THERE IS ZERO FLUX         1.000E-03
     CRITERION FOR RESIDUAL HEAT FLUX FOR A LINEAR INCREMENT           1.000E-08
     FIELD CONVERSION RATIO                                             1.00    
     CRITERION FOR ZERO HEAT FLUX REL. TO TIME AVRG. MAX. HEAT FLUX    1.000E-05

     VOLUMETRIC STRAIN COMPATIBILITY TOLERANCE FOR HYBRID SOLIDS       1.000E-05
     AXIAL STRAIN COMPATIBILITY TOLERANCE FOR HYBRID BEAMS             1.000E-05
     TRANS. SHEAR STRAIN COMPATIBILITY TOLERANCE FOR HYBRID BEAMS      1.000E-05
     SOFT CONTACT CONSTRAINT COMPATIBILITY TOLERANCE FOR P>P0          5.000E-03
     SOFT CONTACT CONSTRAINT COMPATIBILITY TOLERANCE FOR P=0.0         0.100    
     CONTACT FORCE ERROR TOLERANCE FOR CONVERT SDI=YES                 1.00    
     DISPLACEMENT COMPATIBILITY TOLERANCE FOR DCOUP ELEMENTS           1.000E-05
     ROTATION COMPATIBILITY TOLERANCE FOR DCOUP ELEMENTS               1.000E-05

 EQUILIBRIUM WILL BE CHECKED FOR SEVERE DISCONTINUITY ITERATIONS

 ITERATION CONTROL PARAMETERS:
     FIRST EQUILIBRIUM ITERATION FOR CONSECUTIVE DIVERGENCE CHECK              4
     EQUILIBRIUM ITERATION AFTER WHICH ALTERNATE RESIDUAL IS USED              9
     MAXIMUM EQUILIBRIUM ITERATIONS ALLOWED                                   16
     MAXIMUM ITERATIONS FOR SEVERE DISCONTINUITIES                            12
     GLOBAL STABILIZATION CONTROL IS NOT USED

          PRINT OF INCREMENT NUMBER, TIME, ETC., EVERY    1  INCREMENTS

     THE MAXIMUM NUMBER OF INCREMENTS IN THIS STEP IS                 1000000

          LARGE DISPLACEMENT THEORY WILL BE USED

          UNSYMMETRIC MATRIX STORAGE AND SOLUTION WILL BE USED

     LINEAR EXTRAPOLATION WILL BE USED

     CHARACTERISTIC ELEMENT LENGTH     1.484E-04

     DETAILS REGARDING ACTUAL SOLUTION WAVEFRONT REQUESTED

     DETAILED OUTPUT OF DIAGNOSTICS TO DATABASE REQUESTED

     PRINT OF INCREMENT NUMBER, TIME, ETC., TO THE MESSAGE FILE EVERY     1  INCREMENTS

     ELEMENT OPERATIONS WILL BE CARRIED OUT IN PARALLEL USING   8 THREADS ON 1 DOMAIN

     PARALLEL CONTACT TRACKING ENABLED


     COLLECTING MODEL CONSTRAINT INFORMATION FOR OVERCONSTRAINT CHECKS

     COLLECTING STEP CONSTRAINT INFORMATION FOR OVERCONSTRAINT CHECKS


  INCREMENT     1 STARTS. ATTEMPT NUMBER  1, TIME INCREMENT   360.    
 
     INITIAL ELEMENT LOAD BALANCE
            DOMAIN    1     THREAD    NUMBER OF ELEMENTS
                              1            15424
                              2            15696
                              3            14616
                              4            15624
                              5            14664
                              6            14816
                              7            14991
                              8            15544
 
	UNSYMMETRIC DIRECT SPARSE SOLVER RUNNING ON
 	1 HOST:        1 MPI RANK  x 8 THREADS
 	NUMBER OF EQUATIONS:     546192
 	NUMBER OF RHS:           1
 	NUMBER OF FLOPS:         3.990e+12

     CHECK POINT  START OF SOLVER     

     CHECK POINT  END OF SOLVER       

       ELAPSED USER TIME (SEC)      =   139.56    
       ELAPSED SYSTEM TIME (SEC)    =   12.620    
       ELAPSED TOTAL CPU TIME (SEC) =   152.18    
       ELAPSED WALLCLOCK TIME (SEC) =           20

               CONVERGENCE CHECKS FOR EQUILIBRIUM ITERATION     1


 AVERAGE FORCE                       0.00       TIME AVG. FORCE       1.000E-02
 ALL FORCE     RESIDUALS ARE ZERO
 ALL DISP.    INCREMENTS ARE ZERO
 ALL CORRECTION TO DISP.    ARE ZERO
          THERE IS ZERO FORCE     EVERYWHERE

 AVERAGE HEAT FLUX                  5.975E-14   TIME AVG. HEAT FLUX   1.000E-02
 LARGEST RESIDUAL HEAT FLUX         6.065E-16   AT NODE       2596   DOF 11
   INSTANCE: NDBR2P5                                                                         
 LARGEST INCREMENT OF TEMP.          8.72       AT NODE          1   DOF 11
   INSTANCE: NDBR2P5                                                                         
 LARGEST CORRECTION TO TEMP.         8.72       AT NODE          1   DOF 11
   INSTANCE: NDBR2P5                                                                         
          THERE IS ZERO HEAT FLUX EVERYWHERE
 

 ***WARNING: THERE IS ZERO HEAT FLUX EVERYWHERE IN THE MODEL BASED ON THE 
             DEFAULT CRITERION. PLEASE CHECK THE VALUE OF THE AVERAGE HEAT FLUX 
             DURING THE CURRENT ITERATION TO VERIFY THAT THE HEAT FLUX IS SMALL 
             ENOUGH TO BE TREATED AS ZERO. IF NOT, PLEASE USE THE SOLUTION 
             CONTROLS TO RESET THE CRITERION FOR ZERO HEAT FLUX.

 ITERATION SUMMARY FOR THE INCREMENT:   1 TOTAL ITERATIONS, OF WHICH
   0 ARE SEVERE DISCONTINUITY ITERATIONS AND  1 ARE EQUILIBRIUM ITERATIONS.

 TIME INCREMENT COMPLETED   360.    ,  FRACTION OF STEP COMPLETED  0.200    
 STEP TIME COMPLETED        360.    ,  TOTAL TIME COMPLETED         360.    


  INCREMENT     2 STARTS. ATTEMPT NUMBER  1, TIME INCREMENT   360.    
 
	UNSYMMETRIC DIRECT SPARSE SOLVER RUNNING ON
 	1 HOST:        1 MPI RANK  x 8 THREADS
 	NUMBER OF EQUATIONS:     546192
 	NUMBER OF RHS:           1
 	NUMBER OF FLOPS:         3.990e+12

     CHECK POINT  START OF SOLVER     

     CHECK POINT  END OF SOLVER       

       ELAPSED USER TIME (SEC)      =   122.38    
       ELAPSED SYSTEM TIME (SEC)    =  0.54000    
       ELAPSED TOTAL CPU TIME (SEC) =   122.92    
       ELAPSED WALLCLOCK TIME (SEC) =           16

               CONVERGENCE CHECKS FOR EQUILIBRIUM ITERATION     1


 AVERAGE FORCE                       0.00       TIME AVG. FORCE       1.000E-02
 ALL FORCE     RESIDUALS ARE ZERO
 ALL DISP.    INCREMENTS ARE ZERO
 ALL CORRECTION TO DISP.    ARE ZERO
          THERE IS ZERO FORCE     EVERYWHERE

 AVERAGE HEAT FLUX                  3.987E-14   TIME AVG. HEAT FLUX   1.000E-02
 LARGEST RESIDUAL HEAT FLUX        -1.354E-16   AT NODE       2596   DOF 11
   INSTANCE: NDBR2P5                                                                         
 LARGEST INCREMENT OF TEMP.          2.31       AT NODE      52627   DOF 11
   INSTANCE: NDBR2P5                                                                         
 LARGEST CORRECTION TO TEMP.        -8.72       AT NODE          1   DOF 11
   INSTANCE: NDBR2P5                                                                         
          THERE IS ZERO HEAT FLUX EVERYWHERE
 

 ***WARNING: THERE IS ZERO HEAT FLUX EVERYWHERE IN THE MODEL BASED ON THE 
             DEFAULT CRITERION. PLEASE CHECK THE VALUE OF THE AVERAGE HEAT FLUX 
             DURING THE CURRENT ITERATION TO VERIFY THAT THE HEAT FLUX IS SMALL 
             ENOUGH TO BE TREATED AS ZERO. IF NOT, PLEASE USE THE SOLUTION 
             CONTROLS TO RESET THE CRITERION FOR ZERO HEAT FLUX.

 ITERATION SUMMARY FOR THE INCREMENT:   1 TOTAL ITERATIONS, OF WHICH
   0 ARE SEVERE DISCONTINUITY ITERATIONS AND  1 ARE EQUILIBRIUM ITERATIONS.

 TIME INCREMENT COMPLETED   360.    ,  FRACTION OF STEP COMPLETED  0.400    
 STEP TIME COMPLETED        720.    ,  TOTAL TIME COMPLETED         720.    


  INCREMENT     3 STARTS. ATTEMPT NUMBER  1, TIME INCREMENT   360.    
 
	UNSYMMETRIC DIRECT SPARSE SOLVER RUNNING ON
 	1 HOST:        1 MPI RANK  x 8 THREADS
 	NUMBER OF EQUATIONS:     546192
 	NUMBER OF RHS:           1
 	NUMBER OF FLOPS:         3.990e+12

     CHECK POINT  START OF SOLVER     

     CHECK POINT  END OF SOLVER       

       ELAPSED USER TIME (SEC)      =   124.95    
       ELAPSED SYSTEM TIME (SEC)    =  0.47000    
       ELAPSED TOTAL CPU TIME (SEC) =   125.42    
       ELAPSED WALLCLOCK TIME (SEC) =           17

               CONVERGENCE CHECKS FOR EQUILIBRIUM ITERATION     1


 AVERAGE FORCE                       0.00       TIME AVG. FORCE       1.000E-02
 ALL FORCE     RESIDUALS ARE ZERO
 ALL DISP.    INCREMENTS ARE ZERO
 ALL CORRECTION TO DISP.    ARE ZERO
          THERE IS ZERO FORCE     EVERYWHERE

 AVERAGE HEAT FLUX                  3.030E-14   TIME AVG. HEAT FLUX   1.000E-02
 LARGEST RESIDUAL HEAT FLUX        -1.963E-17   AT NODE       2597   DOF 11
   INSTANCE: NDBR2P5                                                                         
 LARGEST INCREMENT OF TEMP.          1.61       AT NODE      25297   DOF 11
   INSTANCE: NDBR2P5                                                                         
 LARGEST CORRECTION TO TEMP.        -1.20       AT NODE      43807   DOF 11
   INSTANCE: NDBR2P5                                                                         
          THERE IS ZERO HEAT FLUX EVERYWHERE
 

 ***WARNING: THERE IS ZERO HEAT FLUX EVERYWHERE IN THE MODEL BASED ON THE 
             DEFAULT CRITERION. PLEASE CHECK THE VALUE OF THE AVERAGE HEAT FLUX 
             DURING THE CURRENT ITERATION TO VERIFY THAT THE HEAT FLUX IS SMALL 
             ENOUGH TO BE TREATED AS ZERO. IF NOT, PLEASE USE THE SOLUTION 
             CONTROLS TO RESET THE CRITERION FOR ZERO HEAT FLUX.

 ITERATION SUMMARY FOR THE INCREMENT:   1 TOTAL ITERATIONS, OF WHICH
   0 ARE SEVERE DISCONTINUITY ITERATIONS AND  1 ARE EQUILIBRIUM ITERATIONS.

 TIME INCREMENT COMPLETED   360.    ,  FRACTION OF STEP COMPLETED  0.600    
 STEP TIME COMPLETED       1.080E+03,  TOTAL TIME COMPLETED        1.080E+03


  INCREMENT     4 STARTS. ATTEMPT NUMBER  1, TIME INCREMENT   360.    
 
	UNSYMMETRIC DIRECT SPARSE SOLVER RUNNING ON
 	1 HOST:        1 MPI RANK  x 8 THREADS
 	NUMBER OF EQUATIONS:     546192
 	NUMBER OF RHS:           1
 	NUMBER OF FLOPS:         3.990e+12

     CHECK POINT  START OF SOLVER     

     CHECK POINT  END OF SOLVER       

       ELAPSED USER TIME (SEC)      =   123.03    
       ELAPSED SYSTEM TIME (SEC)    =  0.47000    
       ELAPSED TOTAL CPU TIME (SEC) =   123.50    
       ELAPSED WALLCLOCK TIME (SEC) =           16

               CONVERGENCE CHECKS FOR EQUILIBRIUM ITERATION     1


 AVERAGE FORCE                       0.00       TIME AVG. FORCE       1.000E-02
 ALL FORCE     RESIDUALS ARE ZERO
 ALL DISP.    INCREMENTS ARE ZERO
 ALL CORRECTION TO DISP.    ARE ZERO
          THERE IS ZERO FORCE     EVERYWHERE

 AVERAGE HEAT FLUX                  2.279E-14   TIME AVG. HEAT FLUX   1.000E-02
 LARGEST RESIDUAL HEAT FLUX        -9.368E-18   AT NODE       2235   DOF 11
   INSTANCE: NDBR2P5                                                                         
 LARGEST INCREMENT OF TEMP.          1.20       AT NODE      25192   DOF 11
   INSTANCE: NDBR2P5                                                                         
 LARGEST CORRECTION TO TEMP.       -0.586       AT NODE      89398   DOF 11
   INSTANCE: NDBR2P5                                                                         
          THERE IS ZERO HEAT FLUX EVERYWHERE
 

 ***WARNING: THERE IS ZERO HEAT FLUX EVERYWHERE IN THE MODEL BASED ON THE 
             DEFAULT CRITERION. PLEASE CHECK THE VALUE OF THE AVERAGE HEAT FLUX 
             DURING THE CURRENT ITERATION TO VERIFY THAT THE HEAT FLUX IS SMALL 
             ENOUGH TO BE TREATED AS ZERO. IF NOT, PLEASE USE THE SOLUTION 
             CONTROLS TO RESET THE CRITERION FOR ZERO HEAT FLUX.

 ITERATION SUMMARY FOR THE INCREMENT:   1 TOTAL ITERATIONS, OF WHICH
   0 ARE SEVERE DISCONTINUITY ITERATIONS AND  1 ARE EQUILIBRIUM ITERATIONS.

 TIME INCREMENT COMPLETED   360.    ,  FRACTION OF STEP COMPLETED  0.800    
 STEP TIME COMPLETED       1.440E+03,  TOTAL TIME COMPLETED        1.440E+03


  INCREMENT     5 STARTS. ATTEMPT NUMBER  1, TIME INCREMENT   360.    
 
	UNSYMMETRIC DIRECT SPARSE SOLVER RUNNING ON
 	1 HOST:        1 MPI RANK  x 8 THREADS
 	NUMBER OF EQUATIONS:     546192
 	NUMBER OF RHS:           1
 	NUMBER OF FLOPS:         3.990e+12

     CHECK POINT  START OF SOLVER     

     CHECK POINT  END OF SOLVER       

       ELAPSED USER TIME (SEC)      =   130.05    
       ELAPSED SYSTEM TIME (SEC)    =  0.42000    
       ELAPSED TOTAL CPU TIME (SEC) =   130.47    
       ELAPSED WALLCLOCK TIME (SEC) =           16

               CONVERGENCE CHECKS FOR EQUILIBRIUM ITERATION     1


 AVERAGE FORCE                       0.00       TIME AVG. FORCE       1.000E-02
 ALL FORCE     RESIDUALS ARE ZERO
 ALL DISP.    INCREMENTS ARE ZERO
 ALL CORRECTION TO DISP.    ARE ZERO
          THERE IS ZERO FORCE     EVERYWHERE

 AVERAGE HEAT FLUX                  1.707E-14   TIME AVG. HEAT FLUX   1.000E-02
 LARGEST RESIDUAL HEAT FLUX        -5.870E-18   AT NODE       2235   DOF 11
   INSTANCE: NDBR2P5                                                                         
 LARGEST INCREMENT OF TEMP.         0.885       AT NODE      32885   DOF 11
   INSTANCE: NDBR2P5                                                                         
 LARGEST CORRECTION TO TEMP.       -0.379       AT NODE      61211   DOF 11
   INSTANCE: NDBR2P5                                                                         
          THERE IS ZERO HEAT FLUX EVERYWHERE
 

 ***WARNING: THERE IS ZERO HEAT FLUX EVERYWHERE IN THE MODEL BASED ON THE 
             DEFAULT CRITERION. PLEASE CHECK THE VALUE OF THE AVERAGE HEAT FLUX 
             DURING THE CURRENT ITERATION TO VERIFY THAT THE HEAT FLUX IS SMALL 
             ENOUGH TO BE TREATED AS ZERO. IF NOT, PLEASE USE THE SOLUTION 
             CONTROLS TO RESET THE CRITERION FOR ZERO HEAT FLUX.

 ITERATION SUMMARY FOR THE INCREMENT:   1 TOTAL ITERATIONS, OF WHICH
   0 ARE SEVERE DISCONTINUITY ITERATIONS AND  1 ARE EQUILIBRIUM ITERATIONS.

 TIME INCREMENT COMPLETED   360.    ,  FRACTION OF STEP COMPLETED   1.00    
 STEP TIME COMPLETED       1.800E+03,  TOTAL TIME COMPLETED        1.800E+03
1

   Abaqus 2023                                  Date 08-Dec-2024   Time 19:29:01
   For use by CSC_ IT CENTER FOR SCIENCE LTD under license from Dassault Systemes or its subsidiary.

                                                                                 
                                                                                 
 STEP    2     INCREMENT     1     STEP TIME    0.00    


                        S T E P       2     C O U P L E D - T E M P E R A T U R E - D I S P L A C E M E N T   A N A L Y S I S


                                                                                          

     AUTOMATIC TIME CONTROL WITH -
          A SUGGESTED INITIAL TIME INCREMENT OF                 5.14    
          AND A TOTAL TIME PERIOD OF                            514.    
          THE MINIMUM TIME INCREMENT ALLOWED IS                1.000E-07
          THE MAXIMUM TIME INCREMENT ALLOWED IS                 5.14    

          CREEP AND SWELLING EFFECTS ARE OMITTED IN THIS STEP

     THE SIZE OF THE TIME INCREMENT IS CONTROLLED BY -
          THE TEMPERATURE CHANGE PER INCREMENT NOT EXCEEDING           1.000E+03
          THE RATE DEPENDENCY WILL BE CONSIDERED IN THIS STEP

          CREEP AND SWELLING EFFECTS WILL BE IGNORED.

 CONVERGENCE TOLERANCE PARAMETERS FOR FORCE    
     CRITERION FOR RESIDUAL FORCE     FOR A NONLINEAR PROBLEM          5.000E-03
     CRITERION FOR DISP.    CORRECTION IN A NONLINEAR PROBLEM          1.000E-02
     INIT. VALUE OF TIME AVG. FORCE     IS TIME AVG. FORCE     IN PREVIOUS STEP
     AVERAGE FORCE     IS TIME AVERAGE FORCE    
     ALTERNATE CRIT. FOR RESIDUAL FORCE     FOR A NONLINEAR PROBLEM    2.000E-02
     CRITERION FOR ZERO FORCE     RELATIVE TO TIME AVRG. FORCE         1.000E-05
     CRITERION FOR RESIDUAL FORCE     WHEN THERE IS ZERO FLUX          1.000E-05
     CRITERION FOR DISP.    CORRECTION WHEN THERE IS ZERO FLUX         1.000E-03
     CRITERION FOR RESIDUAL FORCE     FOR A LINEAR INCREMENT           1.000E-08
     FIELD CONVERSION RATIO                                             1.00    
     CRITERION FOR ZERO FORCE     REL. TO TIME AVRG. MAX. FORCE        1.000E-05
     CRITERION FOR ZERO DISP.    RELATIVE TO CHARACTERISTIC LENGTH     1.000E-08

 CONVERGENCE TOLERANCE PARAMETERS FOR HEAT FLUX
     CRITERION FOR RESIDUAL HEAT FLUX FOR A NONLINEAR PROBLEM          5.000E-03
     CRITERION FOR TEMP.    CORRECTION IN A NONLINEAR PROBLEM          1.000E-02
     INIT. VALUE OF TIME AVG. HEAT FLUX IS TIME AVG. HEAT FLUX IN PREVIOUS STEP
     AVERAGE HEAT FLUX IS TIME AVERAGE HEAT FLUX
     ALTERNATE CRIT. FOR RESIDUAL HEAT FLUX FOR A NONLINEAR PROBLEM    2.000E-02
     CRITERION FOR ZERO HEAT FLUX RELATIVE TO TIME AVRG. HEAT FLUX     1.000E-05
     CRITERION FOR RESIDUAL HEAT FLUX WHEN THERE IS ZERO FLUX          1.000E-05
     CRITERION FOR TEMP.    CORRECTION WHEN THERE IS ZERO FLUX         1.000E-03
     CRITERION FOR RESIDUAL HEAT FLUX FOR A LINEAR INCREMENT           1.000E-08
     FIELD CONVERSION RATIO                                             1.00    
     CRITERION FOR ZERO HEAT FLUX REL. TO TIME AVRG. MAX. HEAT FLUX    1.000E-05

     VOLUMETRIC STRAIN COMPATIBILITY TOLERANCE FOR HYBRID SOLIDS       1.000E-05
     AXIAL STRAIN COMPATIBILITY TOLERANCE FOR HYBRID BEAMS             1.000E-05
     TRANS. SHEAR STRAIN COMPATIBILITY TOLERANCE FOR HYBRID BEAMS      1.000E-05
     SOFT CONTACT CONSTRAINT COMPATIBILITY TOLERANCE FOR P>P0          5.000E-03
     SOFT CONTACT CONSTRAINT COMPATIBILITY TOLERANCE FOR P=0.0         0.100    
     CONTACT FORCE ERROR TOLERANCE FOR CONVERT SDI=YES                 1.00    
     DISPLACEMENT COMPATIBILITY TOLERANCE FOR DCOUP ELEMENTS           1.000E-05
     ROTATION COMPATIBILITY TOLERANCE FOR DCOUP ELEMENTS               1.000E-05

 EQUILIBRIUM WILL BE CHECKED FOR SEVERE DISCONTINUITY ITERATIONS

 TIME INCREMENTATION CONTROL PARAMETERS:
     FIRST EQUILIBRIUM ITERATION FOR CONSECUTIVE DIVERGENCE CHECK              4
     EQUILIBRIUM ITERATION AT WHICH LOG. CONVERGENCE RATE CHECK BEGINS         8
     EQUILIBRIUM ITERATION AFTER WHICH ALTERNATE RESIDUAL IS USED              9
     MAXIMUM EQUILIBRIUM ITERATIONS ALLOWED                                   16
     EQUILIBRIUM ITERATION COUNT FOR CUT-BACK IN NEXT INCREMENT               10
     MAXIMUM EQUILIB. ITERS IN TWO INCREMENTS FOR TIME INCREMENT INCREASE      4
     MAXIMUM ITERATIONS FOR SEVERE DISCONTINUITIES                            50
     MAXIMUM ATTEMPTS ALLOWED IN AN INCREMENT                                  5
     MAXIMUM DISCON. ITERS IN TWO INCREMENTS FOR TIME INCREMENT INCREASE      50
     MAXIMUM CONTACT AUGMENTATIONS FOR *SURFACE BEHAVIOR,AUGMENTED LAGRANGE   50
     CONSECUTIVE INCS MEETING TIME INTEG. TOL. FOR TIME INC. INCREASE          3
     CUT-BACK FACTOR AFTER DIVERGENCE                                 0.2500    
     CUT-BACK FACTOR FOR TOO SLOW CONVERGENCE                         0.5000    
     CUT-BACK FACTOR AFTER TOO MANY EQUILIBRIUM ITERATIONS            0.7500    
     CUT-BACK FACTOR AFTER TOO MANY SEVERE DISCONTINUITY ITERATIONS   0.2500    
     CUT-BACK FACTOR AFTER PROBLEMS IN ELEMENT ASSEMBLY               0.2500    
     INCREASE FACTOR AFTER TWO INCREMENTS THAT CONVERGE QUICKLY        1.500    
     MAX. TIME INCREMENT INCREASE FACTOR ALLOWED                       1.500    
     MAX. TIME INCREMENT INCREASE FACTOR ALLOWED (DYNAMICS)            1.250    
     MAX. TIME INCREMENT INCREASE FACTOR ALLOWED (DIFFUSION)           2.000    
     MINIMUM TIME INCREMENT RATIO FOR EXTRAPOLATION TO OCCUR          0.1000    
     CUT-BACK FACTOR WHEN TIME INTEGRATION ACCURACY TOL. EXCEEDED     0.8500    
     MAX. RATIO OF TIME INTEG. MEASURE TO TOL. FOR TIME INC. INCREASE 0.7500    
     INCREASE FACTOR FOR TIME INCREMENT WHEN POSSIBLE                 0.8000    
     MIN. TIME INC. INCREASE FACTOR IN LINEAR TRANSIENT PROBLEMS      0.9500    
     MAX. RATIO OF TIME INCREMENT TO STABILITY LIMIT                   1.000    
     FRACTION OF STABILITY LIMIT FOR NEW TIME INCREMENT               0.9500    
     TIME INCREMENT INCREASE FACTOR BEFORE A TIME POINT                1.000    
     GLOBAL STABILIZATION CONTROL IS NOT USED

          PRINT OF INCREMENT NUMBER, TIME, ETC., EVERY    1  INCREMENTS

     THE MAXIMUM NUMBER OF INCREMENTS IN THIS STEP IS                 1000000

          LARGE DISPLACEMENT THEORY WILL BE USED

          UNSYMMETRIC MATRIX STORAGE AND SOLUTION WILL BE USED

     LINEAR EXTRAPOLATION WILL BE USED

     CHARACTERISTIC ELEMENT LENGTH     1.484E-04

     DETAILS REGARDING ACTUAL SOLUTION WAVEFRONT REQUESTED

     DETAILED OUTPUT OF DIAGNOSTICS TO DATABASE REQUESTED

     PRINT OF INCREMENT NUMBER, TIME, ETC., TO THE MESSAGE FILE EVERY     1  INCREMENTS

     ELEMENT OPERATIONS WILL BE CARRIED OUT IN PARALLEL USING   8 THREADS ON 1 DOMAIN

     COLLECTING STEP CONSTRAINT INFORMATION FOR OVERCONSTRAINT CHECKS


  INCREMENT     1 STARTS. ATTEMPT NUMBER  1, TIME INCREMENT   5.14    
 
     INITIAL ELEMENT LOAD BALANCE
            DOMAIN    1     THREAD    NUMBER OF ELEMENTS
                              1            15360
                              2            15680
                              3            15072
                              4            15496
                              5            12695
                              6            15696
                              7            15696
                              8            15680
 
	UNSYMMETRIC DIRECT SPARSE SOLVER RUNNING ON
 	1 HOST:        1 MPI RANK  x 8 THREADS
 	NUMBER OF EQUATIONS:     546192
 	NUMBER OF RHS:           1
 	NUMBER OF FLOPS:         3.990e+12

     CHECK POINT  START OF SOLVER     

     CHECK POINT  END OF SOLVER       

       ELAPSED USER TIME (SEC)      =   133.62    
       ELAPSED SYSTEM TIME (SEC)    =   5.4400    
       ELAPSED TOTAL CPU TIME (SEC) =   139.06    
       ELAPSED WALLCLOCK TIME (SEC) =           18

 ***WARNING: SOLVER PROBLEM.  ZERO PIVOT WHEN PROCESSING NODE 129584 INSTANCE 
             NDBR2P5 D.O.F. 11
  Typically a zero pivot is associated with an overconstraint in the model. 
 However, Abaqus was not able to identify any chains of constraints that might 
 lead to an overconstraint at this node. This suggests that the model might be 
 in fact insufficiently constrained in this particular degree of freedom. 
 Please check the constraints used in this model. 


 ***WARNING: SOLVER PROBLEM.  ZERO PIVOT WHEN PROCESSING NODE 129459 INSTANCE 
             NDBR2P5 D.O.F. 11
  Typically a zero pivot is associated with an overconstraint in the model. 
 However, Abaqus was not able to identify any chains of constraints that might 
 lead to an overconstraint at this node. This suggests that the model might be 
 in fact insufficiently constrained in this particular degree of freedom. 
 Please check the constraints used in this model. 


 ***WARNING: SOLVER PROBLEM.  ZERO PIVOT WHEN PROCESSING NODE 129586 INSTANCE 
             NDBR2P5 D.O.F. 11
  Typically a zero pivot is associated with an overconstraint in the model. 
 However, Abaqus was not able to identify any chains of constraints that might 
 lead to an overconstraint at this node. This suggests that the model might be 
 in fact insufficiently constrained in this particular degree of freedom. 
 Please check the constraints used in this model. 


 ***WARNING: SOLVER PROBLEM.  ZERO PIVOT WHEN PROCESSING NODE 129461 INSTANCE 
             NDBR2P5 D.O.F. 11
  Typically a zero pivot is associated with an overconstraint in the model. 
 However, Abaqus was not able to identify any chains of constraints that might 
 lead to an overconstraint at this node. This suggests that the model might be 
 in fact insufficiently constrained in this particular degree of freedom. 
 Please check the constraints used in this model. 


 ***WARNING: SOLVER PROBLEM.  ZERO PIVOT WHEN PROCESSING NODE 133336 INSTANCE 
             NDBR2P5 D.O.F. 11
  Typically a zero pivot is associated with an overconstraint in the model. 
 However, Abaqus was not able to identify any chains of constraints that might 
 lead to an overconstraint at this node. This suggests that the model might be 
 in fact insufficiently constrained in this particular degree of freedom. 
 Please check the constraints used in this model. 


 ***WARNING: SOLVER PROBLEM.  ZERO PIVOT WHEN PROCESSING NODE 133211 INSTANCE 
             NDBR2P5 D.O.F. 11
  Typically a zero pivot is associated with an overconstraint in the model. 
 However, Abaqus was not able to identify any chains of constraints that might 
 lead to an overconstraint at this node. This suggests that the model might be 
 in fact insufficiently constrained in this particular degree of freedom. 
 Please check the constraints used in this model. 


 ***WARNING: SOLVER PROBLEM.  ZERO PIVOT WHEN PROCESSING NODE 131461 INSTANCE 
             NDBR2P5 D.O.F. 11
  Typically a zero pivot is associated with an overconstraint in the model. 
 However, Abaqus was not able to identify any chains of constraints that might 
 lead to an overconstraint at this node. This suggests that the model might be 
 in fact insufficiently constrained in this particular degree of freedom. 
 Please check the constraints used in this model. 


 ***WARNING: SOLVER PROBLEM.  ZERO PIVOT WHEN PROCESSING NODE 131336 INSTANCE 
             NDBR2P5 D.O.F. 11
  Typically a zero pivot is associated with an overconstraint in the model. 
 However, Abaqus was not able to identify any chains of constraints that might 
 lead to an overconstraint at this node. This suggests that the model might be 
 in fact insufficiently constrained in this particular degree of freedom. 
 Please check the constraints used in this model. 


 ***WARNING: SOLVER PROBLEM.  ZERO PIVOT WHEN PROCESSING NODE 129585 INSTANCE 
             NDBR2P5 D.O.F. 11
  Typically a zero pivot is associated with an overconstraint in the model. 
 However, Abaqus was not able to identify any chains of constraints that might 
 lead to an overconstraint at this node. This suggests that the model might be 
 in fact insufficiently constrained in this particular degree of freedom. 
 Please check the constraints used in this model. 


 ***WARNING: SOLVER PROBLEM.  ZERO PIVOT WHEN PROCESSING NODE 129460 INSTANCE 
             NDBR2P5 D.O.F. 11
  Typically a zero pivot is associated with an overconstraint in the model. 
 However, Abaqus was not able to identify any chains of constraints that might 
 lead to an overconstraint at this node. This suggests that the model might be 
 in fact insufficiently constrained in this particular degree of freedom. 
 Please check the constraints used in this model. 


 ***WARNING: SOLVER PROBLEM.  ZERO PIVOT WHEN PROCESSING NODE 133334 INSTANCE 
             NDBR2P5 D.O.F. 11
  Typically a zero pivot is associated with an overconstraint in the model. 
 However, Abaqus was not able to identify any chains of constraints that might 
 lead to an overconstraint at this node. This suggests that the model might be 
 in fact insufficiently constrained in this particular degree of freedom. 
 Please check the constraints used in this model. 


 ***WARNING: SOLVER PROBLEM.  ZERO PIVOT WHEN PROCESSING NODE 133209 INSTANCE 
             NDBR2P5 D.O.F. 11
  Typically a zero pivot is associated with an overconstraint in the model. 
 However, Abaqus was not able to identify any chains of constraints that might 
 lead to an overconstraint at this node. This suggests that the model might be 
 in fact insufficiently constrained in this particular degree of freedom. 
 Please check the constraints used in this model. 


 ***WARNING: SOLVER PROBLEM.  ZERO PIVOT WHEN PROCESSING NODE 131459 INSTANCE 
             NDBR2P5 D.O.F. 11
  Typically a zero pivot is associated with an overconstraint in the model. 
 However, Abaqus was not able to identify any chains of constraints that might 
 lead to an overconstraint at this node. This suggests that the model might be 
 in fact insufficiently constrained in this particular degree of freedom. 
 Please check the constraints used in this model. 


 ***WARNING: SOLVER PROBLEM.  ZERO PIVOT WHEN PROCESSING NODE 131334 INSTANCE 
             NDBR2P5 D.O.F. 11
  Typically a zero pivot is associated with an overconstraint in the model. 
 However, Abaqus was not able to identify any chains of constraints that might 
 lead to an overconstraint at this node. This suggests that the model might be 
 in fact insufficiently constrained in this particular degree of freedom. 
 Please check the constraints used in this model. 


 ***WARNING: SOLVER PROBLEM.  ZERO PIVOT WHEN PROCESSING NODE 131335 INSTANCE 
             NDBR2P5 D.O.F. 11
  Typically a zero pivot is associated with an overconstraint in the model. 
 However, Abaqus was not able to identify any chains of constraints that might 
 lead to an overconstraint at this node. This suggests that the model might be 
 in fact insufficiently constrained in this particular degree of freedom. 
 Please check the constraints used in this model. 


 ***WARNING: SOLVER PROBLEM.  ZERO PIVOT WHEN PROCESSING NODE 131460 INSTANCE 
             NDBR2P5 D.O.F. 11
  Typically a zero pivot is associated with an overconstraint in the model. 
 However, Abaqus was not able to identify any chains of constraints that might 
 lead to an overconstraint at this node. This suggests that the model might be 
 in fact insufficiently constrained in this particular degree of freedom. 
 Please check the constraints used in this model. 


 ***WARNING: SOLVER PROBLEM.  ZERO PIVOT WHEN PROCESSING NODE 133210 INSTANCE 
             NDBR2P5 D.O.F. 11
  Typically a zero pivot is associated with an overconstraint in the model. 
 However, Abaqus was not able to identify any chains of constraints that might 
 lead to an overconstraint at this node. This suggests that the model might be 
 in fact insufficiently constrained in this particular degree of freedom. 
 Please check the constraints used in this model. 


 ***WARNING: SOLVER PROBLEM.  ZERO PIVOT WHEN PROCESSING NODE 133335 INSTANCE 
             NDBR2P5 D.O.F. 11
  Typically a zero pivot is associated with an overconstraint in the model. 
 However, Abaqus was not able to identify any chains of constraints that might 
 lead to an overconstraint at this node. This suggests that the model might be 
 in fact insufficiently constrained in this particular degree of freedom. 
 Please check the constraints used in this model. 


 ***WARNING: SOLVER PROBLEM.  ZERO PIVOT WHEN PROCESSING NODE 129582 INSTANCE 
             NDBR2P5 D.O.F. 11
  Typically a zero pivot is associated with an overconstraint in the model. 
 However, Abaqus was not able to identify any chains of constraints that might 
 lead to an overconstraint at this node. This suggests that the model might be 
 in fact insufficiently constrained in this particular degree of freedom. 
 Please check the constraints used in this model. 


 ***WARNING: SOLVER PROBLEM.  ZERO PIVOT WHEN PROCESSING NODE 129457 INSTANCE 
             NDBR2P5 D.O.F. 11
  Typically a zero pivot is associated with an overconstraint in the model. 
 However, Abaqus was not able to identify any chains of constraints that might 
 lead to an overconstraint at this node. This suggests that the model might be 
 in fact insufficiently constrained in this particular degree of freedom. 
 Please check the constraints used in this model. 


 ***WARNING: SOLVER PROBLEM.  ZERO PIVOT WHEN PROCESSING NODE 133332 INSTANCE 
             NDBR2P5 D.O.F. 11
  Typically a zero pivot is associated with an overconstraint in the model. 
 However, Abaqus was not able to identify any chains of constraints that might 
 lead to an overconstraint at this node. This suggests that the model might be 
 in fact insufficiently constrained in this particular degree of freedom. 
 Please check the constraints used in this model. 


 ***WARNING: SOLVER PROBLEM.  ZERO PIVOT WHEN PROCESSING NODE 133207 INSTANCE 
             NDBR2P5 D.O.F. 11
  Typically a zero pivot is associated with an overconstraint in the model. 
 However, Abaqus was not able to identify any chains of constraints that might 
 lead to an overconstraint at this node. This suggests that the model might be 
 in fact insufficiently constrained in this particular degree of freedom. 
 Please check the constraints used in this model. 


 ***WARNING: SOLVER PROBLEM.  ZERO PIVOT WHEN PROCESSING NODE 131457 INSTANCE 
             NDBR2P5 D.O.F. 11
  Typically a zero pivot is associated with an overconstraint in the model. 
 However, Abaqus was not able to identify any chains of constraints that might 
 lead to an overconstraint at this node. This suggests that the model might be 
 in fact insufficiently constrained in this particular degree of freedom. 
 Please check the constraints used in this model. 


 ***WARNING: SOLVER PROBLEM.  ZERO PIVOT WHEN PROCESSING NODE 131332 INSTANCE 
             NDBR2P5 D.O.F. 11
  Typically a zero pivot is associated with an overconstraint in the model. 
 However, Abaqus was not able to identify any chains of constraints that might 
 lead to an overconstraint at this node. This suggests that the model might be 
 in fact insufficiently constrained in this particular degree of freedom. 
 Please check the constraints used in this model. 


 ***WARNING: SOLVER PROBLEM.  ZERO PIVOT WHEN PROCESSING NODE 118672 INSTANCE 
             NDBR2P5 D.O.F. 11
  Typically a zero pivot is associated with an overconstraint in the model. 
 However, Abaqus was not able to identify any chains of constraints that might 
 lead to an overconstraint at this node. This suggests that the model might be 
 in fact insufficiently constrained in this particular degree of freedom. 
 Please check the constraints used in this model. 


 ***WARNING: SOLVER PROBLEM.  ZERO PIVOT WHEN PROCESSING NODE 116173 INSTANCE 
             NDBR2P5 D.O.F. 11
  Typically a zero pivot is associated with an overconstraint in the model. 
 However, Abaqus was not able to identify any chains of constraints that might 
 lead to an overconstraint at this node. This suggests that the model might be 
 in fact insufficiently constrained in this particular degree of freedom. 
 Please check the constraints used in this model. 


 ***WARNING: SOLVER PROBLEM.  ZERO PIVOT WHEN PROCESSING NODE 135207 INSTANCE 
             NDBR2P5 D.O.F. 11
  Typically a zero pivot is associated with an overconstraint in the model. 
 However, Abaqus was not able to identify any chains of constraints that might 
 lead to an overconstraint at this node. This suggests that the model might be 
 in fact insufficiently constrained in this particular degree of freedom. 
 Please check the constraints used in this model. 


 ***WARNING: SOLVER PROBLEM.  ZERO PIVOT WHEN PROCESSING NODE 135082 INSTANCE 
             NDBR2P5 D.O.F. 11
  Typically a zero pivot is associated with an overconstraint in the model. 
 However, Abaqus was not able to identify any chains of constraints that might 
 lead to an overconstraint at this node. This suggests that the model might be 
 in fact insufficiently constrained in this particular degree of freedom. 
 Please check the constraints used in this model. 


 ***WARNING: SOLVER PROBLEM.  ZERO PIVOT WHEN PROCESSING NODE 133333 INSTANCE 
             NDBR2P5 D.O.F. 11
  Typically a zero pivot is associated with an overconstraint in the model. 
 However, Abaqus was not able to identify any chains of constraints that might 
 lead to an overconstraint at this node. This suggests that the model might be 
 in fact insufficiently constrained in this particular degree of freedom. 
 Please check the constraints used in this model. 


 ***WARNING: SOLVER PROBLEM.  ZERO PIVOT WHEN PROCESSING NODE 129458 INSTANCE 
             NDBR2P5 D.O.F. 11
  Typically a zero pivot is associated with an overconstraint in the model. 
 However, Abaqus was not able to identify any chains of constraints that might 
 lead to an overconstraint at this node. This suggests that the model might be 
 in fact insufficiently constrained in this particular degree of freedom. 
 Please check the constraints used in this model. 


 ***WARNING: SOLVER PROBLEM.  ZERO PIVOT WHEN PROCESSING NODE 129583 INSTANCE 
             NDBR2P5 D.O.F. 11
  Typically a zero pivot is associated with an overconstraint in the model. 
 However, Abaqus was not able to identify any chains of constraints that might 
 lead to an overconstraint at this node. This suggests that the model might be 
 in fact insufficiently constrained in this particular degree of freedom. 
 Please check the constraints used in this model. 


 ***WARNING: SOLVER PROBLEM.  ZERO PIVOT WHEN PROCESSING NODE 131333 INSTANCE 
             NDBR2P5 D.O.F. 11
  Typically a zero pivot is associated with an overconstraint in the model. 
 However, Abaqus was not able to identify any chains of constraints that might 
 lead to an overconstraint at this node. This suggests that the model might be 
 in fact insufficiently constrained in this particular degree of freedom. 
 Please check the constraints used in this model. 


 ***WARNING: SOLVER PROBLEM.  ZERO PIVOT WHEN PROCESSING NODE 131458 INSTANCE 
             NDBR2P5 D.O.F. 11
  Typically a zero pivot is associated with an overconstraint in the model. 
 However, Abaqus was not able to identify any chains of constraints that might 
 lead to an overconstraint at this node. This suggests that the model might be 
 in fact insufficiently constrained in this particular degree of freedom. 
 Please check the constraints used in this model. 


 ***WARNING: SOLVER PROBLEM.  ZERO PIVOT WHEN PROCESSING NODE 133208 INSTANCE 
             NDBR2P5 D.O.F. 11
  Typically a zero pivot is associated with an overconstraint in the model. 
 However, Abaqus was not able to identify any chains of constraints that might 
 lead to an overconstraint at this node. This suggests that the model might be 
 in fact insufficiently constrained in this particular degree of freedom. 
 Please check the constraints used in this model. 


 ***WARNING: SOLVER PROBLEM.  ZERO PIVOT WHEN PROCESSING NODE 119323 INSTANCE 
             NDBR2P5 D.O.F. 11
  Typically a zero pivot is associated with an overconstraint in the model. 
 However, Abaqus was not able to identify any chains of constraints that might 
 lead to an overconstraint at this node. This suggests that the model might be 
 in fact insufficiently constrained in this particular degree of freedom. 
 Please check the constraints used in this model. 


 ***WARNING: SOLVER PROBLEM.  ZERO PIVOT WHEN PROCESSING NODE 118050 INSTANCE 
             NDBR2P5 D.O.F. 11
  Typically a zero pivot is associated with an overconstraint in the model. 
 However, Abaqus was not able to identify any chains of constraints that might 
 lead to an overconstraint at this node. This suggests that the model might be 
 in fact insufficiently constrained in this particular degree of freedom. 
 Please check the constraints used in this model. 


 ***WARNING: SOLVER PROBLEM.  ZERO PIVOT WHEN PROCESSING NODE 116884 INSTANCE 
             NDBR2P5 D.O.F. 11
  Typically a zero pivot is associated with an overconstraint in the model. 
 However, Abaqus was not able to identify any chains of constraints that might 
 lead to an overconstraint at this node. This suggests that the model might be 
 in fact insufficiently constrained in this particular degree of freedom. 
 Please check the constraints used in this model. 


 ***WARNING: SOLVER PROBLEM.  ZERO PIVOT WHEN PROCESSING NODE 115965 INSTANCE 
             NDBR2P5 D.O.F. 11
  Typically a zero pivot is associated with an overconstraint in the model. 
 However, Abaqus was not able to identify any chains of constraints that might 
 lead to an overconstraint at this node. This suggests that the model might be 
 in fact insufficiently constrained in this particular degree of freedom. 
 Please check the constraints used in this model. 


 ***WARNING: SOLVER PROBLEM.  ZERO PIVOT WHEN PROCESSING NODE 116998 INSTANCE 
             NDBR2P5 D.O.F. 11
  Typically a zero pivot is associated with an overconstraint in the model. 
 However, Abaqus was not able to identify any chains of constraints that might 
 lead to an overconstraint at this node. This suggests that the model might be 
 in fact insufficiently constrained in this particular degree of freedom. 
 Please check the constraints used in this model. 


 ***WARNING: SOLVER PROBLEM.  ZERO PIVOT WHEN PROCESSING NODE 116860 INSTANCE 
             NDBR2P5 D.O.F. 11
  Typically a zero pivot is associated with an overconstraint in the model. 
 However, Abaqus was not able to identify any chains of constraints that might 
 lead to an overconstraint at this node. This suggests that the model might be 
 in fact insufficiently constrained in this particular degree of freedom. 
 Please check the constraints used in this model. 


 ***WARNING: SOLVER PROBLEM.  ZERO PIVOT WHEN PROCESSING NODE 118520 INSTANCE 
             NDBR2P5 D.O.F. 11
  Typically a zero pivot is associated with an overconstraint in the model. 
 However, Abaqus was not able to identify any chains of constraints that might 
 lead to an overconstraint at this node. This suggests that the model might be 
 in fact insufficiently constrained in this particular degree of freedom. 
 Please check the constraints used in this model. 


 ***WARNING: SOLVER PROBLEM.  ZERO PIVOT WHEN PROCESSING NODE 118295 INSTANCE 
             NDBR2P5 D.O.F. 11
  Typically a zero pivot is associated with an overconstraint in the model. 
 However, Abaqus was not able to identify any chains of constraints that might 
 lead to an overconstraint at this node. This suggests that the model might be 
 in fact insufficiently constrained in this particular degree of freedom. 
 Please check the constraints used in this model. 


 ***WARNING: SOLVER PROBLEM.  ZERO PIVOT WHEN PROCESSING NODE 116568 INSTANCE 
             NDBR2P5 D.O.F. 11
  Typically a zero pivot is associated with an overconstraint in the model. 
 However, Abaqus was not able to identify any chains of constraints that might 
 lead to an overconstraint at this node. This suggests that the model might be 
 in fact insufficiently constrained in this particular degree of freedom. 
 Please check the constraints used in this model. 


 ***WARNING: SOLVER PROBLEM.  ZERO PIVOT WHEN PROCESSING NODE 118574 INSTANCE 
             NDBR2P5 D.O.F. 11
  Typically a zero pivot is associated with an overconstraint in the model. 
 However, Abaqus was not able to identify any chains of constraints that might 
 lead to an overconstraint at this node. This suggests that the model might be 
 in fact insufficiently constrained in this particular degree of freedom. 
 Please check the constraints used in this model. 


 ***WARNING: SOLVER PROBLEM.  ZERO PIVOT WHEN PROCESSING NODE 119371 INSTANCE 
             NDBR2P5 D.O.F. 11
  Typically a zero pivot is associated with an overconstraint in the model. 
 However, Abaqus was not able to identify any chains of constraints that might 
 lead to an overconstraint at this node. This suggests that the model might be 
 in fact insufficiently constrained in this particular degree of freedom. 
 Please check the constraints used in this model. 


 ***WARNING: SOLVER PROBLEM.  ZERO PIVOT WHEN PROCESSING NODE 115791 INSTANCE 
             NDBR2P5 D.O.F. 11
  Typically a zero pivot is associated with an overconstraint in the model. 
 However, Abaqus was not able to identify any chains of constraints that might 
 lead to an overconstraint at this node. This suggests that the model might be 
 in fact insufficiently constrained in this particular degree of freedom. 
 Please check the constraints used in this model. 


 ***WARNING: SOLVER PROBLEM.  ZERO PIVOT WHEN PROCESSING NODE 135083 INSTANCE 
             NDBR2P5 D.O.F. 11
  Typically a zero pivot is associated with an overconstraint in the model. 
 However, Abaqus was not able to identify any chains of constraints that might 
 lead to an overconstraint at this node. This suggests that the model might be 
 in fact insufficiently constrained in this particular degree of freedom. 
 Please check the constraints used in this model. 


 ***WARNING: SOLVER PROBLEM.  ZERO PIVOT WHEN PROCESSING NODE 135084 INSTANCE 
             NDBR2P5 D.O.F. 11
  Typically a zero pivot is associated with an overconstraint in the model. 
 However, Abaqus was not able to identify any chains of constraints that might 
 lead to an overconstraint at this node. This suggests that the model might be 
 in fact insufficiently constrained in this particular degree of freedom. 
 Please check the constraints used in this model. 


 ***WARNING: SOLVER PROBLEM.  ZERO PIVOT WHEN PROCESSING NODE 135085 INSTANCE 
             NDBR2P5 D.O.F. 11
  Typically a zero pivot is associated with an overconstraint in the model. 
 However, Abaqus was not able to identify any chains of constraints that might 
 lead to an overconstraint at this node. This suggests that the model might be 
 in fact insufficiently constrained in this particular degree of freedom. 
 Please check the constraints used in this model. 


 ***WARNING: Solver problem. Zero pivot when processing D.O.F. 11 of 49 nodes. 
             The nodes have been identified in node set 
             WarnNodeSolvProbZeroPiv_11_2_1_1_1.

               CONVERGENCE CHECKS FOR EQUILIBRIUM ITERATION     1


 AVERAGE FORCE                      2.116E-02   TIME AVG. FORCE       2.116E-02
 LARGEST RESIDUAL FORCE             6.371E-04   AT NODE       4571   DOF  3
   INSTANCE: NDBR2P5                                                                         
 LARGEST INCREMENT OF DISP.         1.284E-05   AT NODE         21   DOF  2
   INSTANCE: NDBR2P5                                                                         
 LARGEST CORRECTION TO DISP.        1.284E-05   AT NODE         21   DOF  2
   INSTANCE: NDBR2P5                                                                         
          FORCE     EQUILIBRIUM NOT ACHIEVED WITHIN TOLERANCE.

 AVERAGE HEAT FLUX                  1.699E-14   TIME AVG. HEAT FLUX   1.000E-02
 LARGEST RESIDUAL HEAT FLUX         4.333E-17   AT NODE       2421   DOF 11
   INSTANCE: NDBR2P5                                                                         
 LARGEST INCREMENT OF TEMP.         1.257E-02   AT NODE      32885   DOF 11
   INSTANCE: NDBR2P5                                                                         
 LARGEST CORRECTION TO TEMP.        1.257E-02   AT NODE      32885   DOF 11
   INSTANCE: NDBR2P5                                                                         
          THERE IS ZERO HEAT FLUX EVERYWHERE
 

 ***WARNING: THERE IS ZERO HEAT FLUX EVERYWHERE IN THE MODEL BASED ON THE 
             DEFAULT CRITERION. PLEASE CHECK THE VALUE OF THE AVERAGE HEAT FLUX 
             DURING THE CURRENT ITERATION TO VERIFY THAT THE HEAT FLUX IS SMALL 
             ENOUGH TO BE TREATED AS ZERO. IF NOT, PLEASE USE THE SOLUTION 
             CONTROLS TO RESET THE CRITERION FOR ZERO HEAT FLUX.
 
	UNSYMMETRIC DIRECT SPARSE SOLVER RUNNING ON
 	1 HOST:        1 MPI RANK  x 8 THREADS
 	NUMBER OF EQUATIONS:     546192
 	NUMBER OF RHS:           1
 	NUMBER OF FLOPS:         3.990e+12

     CHECK POINT  START OF SOLVER     

     CHECK POINT  END OF SOLVER       

       ELAPSED USER TIME (SEC)      =   136.60    
       ELAPSED SYSTEM TIME (SEC)    =  0.57000    
       ELAPSED TOTAL CPU TIME (SEC) =   137.17    
       ELAPSED WALLCLOCK TIME (SEC) =           18

               CONVERGENCE CHECKS FOR EQUILIBRIUM ITERATION     2


 AVERAGE FORCE                      2.116E-02   TIME AVG. FORCE       2.116E-02
 LARGEST RESIDUAL FORCE            -5.651E-09   AT NODE        330   DOF  2
   INSTANCE: NDBR2P5                                                                         
 LARGEST INCREMENT OF DISP.         1.284E-05   AT NODE         21   DOF  2
   INSTANCE: NDBR2P5                                                                         
 LARGEST CORRECTION TO DISP.        4.998E-11   AT NODE        260   DOF  2
   INSTANCE: NDBR2P5                                                                         
          THE FORCE     EQUILIBRIUM EQUATIONS HAVE CONVERGED

 AVERAGE HEAT FLUX                  1.699E-14   TIME AVG. HEAT FLUX   1.000E-02
 LARGEST RESIDUAL HEAT FLUX        -1.271E-21   AT NODE       4053   DOF 11
   INSTANCE: NDBR2P5                                                                         
 LARGEST INCREMENT OF TEMP.         1.257E-02   AT NODE      32885   DOF 11
   INSTANCE: NDBR2P5                                                                         
 LARGEST CORRECTION TO TEMP.        1.655E-06   AT NODE      96709   DOF 11
   INSTANCE: NDBR2P5                                                                         
          THERE IS ZERO HEAT FLUX EVERYWHERE
 

 ***WARNING: THERE IS ZERO HEAT FLUX EVERYWHERE IN THE MODEL BASED ON THE 
             DEFAULT CRITERION. PLEASE CHECK THE VALUE OF THE AVERAGE HEAT FLUX 
             DURING THE CURRENT ITERATION TO VERIFY THAT THE HEAT FLUX IS SMALL 
             ENOUGH TO BE TREATED AS ZERO. IF NOT, PLEASE USE THE SOLUTION 
             CONTROLS TO RESET THE CRITERION FOR ZERO HEAT FLUX.

 MAXIMUM NON-PRESCRIBED INCREMENT IN TEMPERATURE IS   1.257E-02

 ITERATION SUMMARY FOR THE INCREMENT:   2 TOTAL ITERATIONS, OF WHICH
   0 ARE SEVERE DISCONTINUITY ITERATIONS AND  2 ARE EQUILIBRIUM ITERATIONS.

 TIME INCREMENT COMPLETED   5.14    ,  FRACTION OF STEP COMPLETED  1.000E-02
 STEP TIME COMPLETED        5.14    ,  TOTAL TIME COMPLETED        1.805E+03


  INCREMENT     2 STARTS. ATTEMPT NUMBER  1, TIME INCREMENT   5.14    
 
	UNSYMMETRIC DIRECT SPARSE SOLVER RUNNING ON
 	1 HOST:        1 MPI RANK  x 8 THREADS
 	NUMBER OF EQUATIONS:     546192
 	NUMBER OF RHS:           1
 	NUMBER OF FLOPS:         3.990e+12

     CHECK POINT  START OF SOLVER     

     CHECK POINT  END OF SOLVER       

       ELAPSED USER TIME (SEC)      =   137.55    
       ELAPSED SYSTEM TIME (SEC)    =  0.55000    
       ELAPSED TOTAL CPU TIME (SEC) =   138.10    
       ELAPSED WALLCLOCK TIME (SEC) =           18

               CONVERGENCE CHECKS FOR EQUILIBRIUM ITERATION     1


 AVERAGE FORCE                      4.797E-02   TIME AVG. FORCE       3.457E-02
 LARGEST RESIDUAL FORCE            -9.585E-09   AT NODE        330   DOF  2
   INSTANCE: NDBR2P5                                                                         
 LARGEST INCREMENT OF DISP.         1.284E-05   AT NODE         21   DOF  2
   INSTANCE: NDBR2P5                                                                         
 LARGEST CORRECTION TO DISP.        9.495E-11   AT NODE        260   DOF  2
   INSTANCE: NDBR2P5                                                                         
          THE FORCE     EQUILIBRIUM EQUATIONS HAVE CONVERGED

 AVERAGE HEAT FLUX                  1.691E-14   TIME AVG. HEAT FLUX   1.000E-02
 LARGEST RESIDUAL HEAT FLUX        -3.539E-21   AT NODE       4053   DOF 11
   INSTANCE: NDBR2P5                                                                         
 LARGEST INCREMENT OF TEMP.         1.251E-02   AT NODE      32885   DOF 11
   INSTANCE: NDBR2P5                                                                         
 LARGEST CORRECTION TO TEMP.       -1.406E-04   AT NODE      10663   DOF 11
   INSTANCE: NDBR2P5                                                                         
          THERE IS ZERO HEAT FLUX EVERYWHERE
 

 ***WARNING: THERE IS ZERO HEAT FLUX EVERYWHERE IN THE MODEL BASED ON THE 
             DEFAULT CRITERION. PLEASE CHECK THE VALUE OF THE AVERAGE HEAT FLUX 
             DURING THE CURRENT ITERATION TO VERIFY THAT THE HEAT FLUX IS SMALL 
             ENOUGH TO BE TREATED AS ZERO. IF NOT, PLEASE USE THE SOLUTION 
             CONTROLS TO RESET THE CRITERION FOR ZERO HEAT FLUX.

 MAXIMUM NON-PRESCRIBED INCREMENT IN TEMPERATURE IS   1.251E-02

 ITERATION SUMMARY FOR THE INCREMENT:   1 TOTAL ITERATIONS, OF WHICH
   0 ARE SEVERE DISCONTINUITY ITERATIONS AND  1 ARE EQUILIBRIUM ITERATIONS.

 TIME INCREMENT COMPLETED   5.14    ,  FRACTION OF STEP COMPLETED  2.000E-02
 STEP TIME COMPLETED        10.3    ,  TOTAL TIME COMPLETED        1.810E+03


  INCREMENT     3 STARTS. ATTEMPT NUMBER  1, TIME INCREMENT   5.14    
 
	UNSYMMETRIC DIRECT SPARSE SOLVER RUNNING ON
 	1 HOST:        1 MPI RANK  x 8 THREADS
 	NUMBER OF EQUATIONS:     546192
 	NUMBER OF RHS:           1
 	NUMBER OF FLOPS:         3.990e+12

     CHECK POINT  START OF SOLVER     

     CHECK POINT  END OF SOLVER       

       ELAPSED USER TIME (SEC)      =   136.96    
       ELAPSED SYSTEM TIME (SEC)    =  0.48000    
       ELAPSED TOTAL CPU TIME (SEC) =   137.44    
       ELAPSED WALLCLOCK TIME (SEC) =           17

               CONVERGENCE CHECKS FOR EQUILIBRIUM ITERATION     1


 AVERAGE FORCE                      7.196E-02   TIME AVG. FORCE       4.703E-02
 LARGEST RESIDUAL FORCE            -1.371E-08   AT NODE       1735   DOF  2
   INSTANCE: NDBR2P5                                                                         
 LARGEST INCREMENT OF DISP.         1.284E-05   AT NODE         21   DOF  2
   INSTANCE: NDBR2P5                                                                         
 LARGEST CORRECTION TO DISP.        9.495E-11   AT NODE        260   DOF  2
   INSTANCE: NDBR2P5                                                                         
          THE FORCE     EQUILIBRIUM EQUATIONS HAVE CONVERGED

 AVERAGE HEAT FLUX                  1.683E-14   TIME AVG. HEAT FLUX   1.000E-02
 LARGEST RESIDUAL HEAT FLUX        -3.521E-21   AT NODE       4053   DOF 11
   INSTANCE: NDBR2P5                                                                         
 LARGEST INCREMENT OF TEMP.         1.246E-02   AT NODE      32885   DOF 11
   INSTANCE: NDBR2P5                                                                         
 LARGEST CORRECTION TO TEMP.       -1.010E-04   AT NODE      60953   DOF 11
   INSTANCE: NDBR2P5                                                                         
          THERE IS ZERO HEAT FLUX EVERYWHERE
 

 ***WARNING: THERE IS ZERO HEAT FLUX EVERYWHERE IN THE MODEL BASED ON THE 
             DEFAULT CRITERION. PLEASE CHECK THE VALUE OF THE AVERAGE HEAT FLUX 
             DURING THE CURRENT ITERATION TO VERIFY THAT THE HEAT FLUX IS SMALL 
             ENOUGH TO BE TREATED AS ZERO. IF NOT, PLEASE USE THE SOLUTION 
             CONTROLS TO RESET THE CRITERION FOR ZERO HEAT FLUX.

 MAXIMUM NON-PRESCRIBED INCREMENT IN TEMPERATURE IS   1.246E-02

 ITERATION SUMMARY FOR THE INCREMENT:   1 TOTAL ITERATIONS, OF WHICH
   0 ARE SEVERE DISCONTINUITY ITERATIONS AND  1 ARE EQUILIBRIUM ITERATIONS.

 TIME INCREMENT COMPLETED   5.14    ,  FRACTION OF STEP COMPLETED  3.000E-02
 STEP TIME COMPLETED        15.4    ,  TOTAL TIME COMPLETED        1.815E+03


  INCREMENT     4 STARTS. ATTEMPT NUMBER  1, TIME INCREMENT   5.14    
 
	UNSYMMETRIC DIRECT SPARSE SOLVER RUNNING ON
 	1 HOST:        1 MPI RANK  x 8 THREADS
 	NUMBER OF EQUATIONS:     546192
 	NUMBER OF RHS:           1
 	NUMBER OF FLOPS:         3.990e+12

     CHECK POINT  START OF SOLVER     

     CHECK POINT  END OF SOLVER       

       ELAPSED USER TIME (SEC)      =   135.38    
       ELAPSED SYSTEM TIME (SEC)    =  0.50000    
       ELAPSED TOTAL CPU TIME (SEC) =   135.88    
       ELAPSED WALLCLOCK TIME (SEC) =           18

               CONVERGENCE CHECKS FOR EQUILIBRIUM ITERATION     1


 AVERAGE FORCE                      9.594E-02   TIME AVG. FORCE       5.926E-02
 LARGEST RESIDUAL FORCE            -1.964E-08   AT NODE       1735   DOF  2
   INSTANCE: NDBR2P5                                                                         
 LARGEST INCREMENT OF DISP.         1.284E-05   AT NODE         21   DOF  2
   INSTANCE: NDBR2P5                                                                         
 LARGEST CORRECTION TO DISP.        9.494E-11   AT NODE        260   DOF  2
   INSTANCE: NDBR2P5                                                                         
          THE FORCE     EQUILIBRIUM EQUATIONS HAVE CONVERGED

 AVERAGE HEAT FLUX                  1.675E-14   TIME AVG. HEAT FLUX   1.000E-02
 LARGEST RESIDUAL HEAT FLUX        -3.503E-21   AT NODE       4053   DOF 11
   INSTANCE: NDBR2P5                                                                         
 LARGEST INCREMENT OF TEMP.         1.240E-02   AT NODE      32885   DOF 11
   INSTANCE: NDBR2P5                                                                         
 LARGEST CORRECTION TO TEMP.       -9.728E-05   AT NODE      60953   DOF 11
   INSTANCE: NDBR2P5                                                                         
          THERE IS ZERO HEAT FLUX EVERYWHERE
 

 ***WARNING: THERE IS ZERO HEAT FLUX EVERYWHERE IN THE MODEL BASED ON THE 
             DEFAULT CRITERION. PLEASE CHECK THE VALUE OF THE AVERAGE HEAT FLUX 
             DURING THE CURRENT ITERATION TO VERIFY THAT THE HEAT FLUX IS SMALL 
             ENOUGH TO BE TREATED AS ZERO. IF NOT, PLEASE USE THE SOLUTION 
             CONTROLS TO RESET THE CRITERION FOR ZERO HEAT FLUX.

 MAXIMUM NON-PRESCRIBED INCREMENT IN TEMPERATURE IS   1.240E-02

 ITERATION SUMMARY FOR THE INCREMENT:   1 TOTAL ITERATIONS, OF WHICH
   0 ARE SEVERE DISCONTINUITY ITERATIONS AND  1 ARE EQUILIBRIUM ITERATIONS.

 TIME INCREMENT COMPLETED   5.14    ,  FRACTION OF STEP COMPLETED  4.000E-02
 STEP TIME COMPLETED        20.6    ,  TOTAL TIME COMPLETED        1.821E+03


  INCREMENT     5 STARTS. ATTEMPT NUMBER  1, TIME INCREMENT   5.14    
 
	UNSYMMETRIC DIRECT SPARSE SOLVER RUNNING ON
 	1 HOST:        1 MPI RANK  x 8 THREADS
 	NUMBER OF EQUATIONS:     546192
 	NUMBER OF RHS:           1
 	NUMBER OF FLOPS:         3.990e+12

     CHECK POINT  START OF SOLVER     

     CHECK POINT  END OF SOLVER       

       ELAPSED USER TIME (SEC)      =   133.27    
       ELAPSED SYSTEM TIME (SEC)    =  0.48000    
       ELAPSED TOTAL CPU TIME (SEC) =   133.75    
       ELAPSED WALLCLOCK TIME (SEC) =           17

               CONVERGENCE CHECKS FOR EQUILIBRIUM ITERATION     1


 AVERAGE FORCE                      0.120       TIME AVG. FORCE       7.139E-02
 LARGEST RESIDUAL FORCE            -2.557E-08   AT NODE       1735   DOF  2
   INSTANCE: NDBR2P5                                                                         
 LARGEST INCREMENT OF DISP.         1.284E-05   AT NODE         21   DOF  2
   INSTANCE: NDBR2P5                                                                         
 LARGEST CORRECTION TO DISP.        9.493E-11   AT NODE        260   DOF  2
   INSTANCE: NDBR2P5                                                                         
          THE FORCE     EQUILIBRIUM EQUATIONS HAVE CONVERGED

 AVERAGE HEAT FLUX                  1.667E-14   TIME AVG. HEAT FLUX   1.000E-02
 LARGEST RESIDUAL HEAT FLUX        -3.486E-21   AT NODE       4053   DOF 11
   INSTANCE: NDBR2P5                                                                         
 LARGEST INCREMENT OF TEMP.         1.234E-02   AT NODE      32885   DOF 11
   INSTANCE: NDBR2P5                                                                         
 LARGEST CORRECTION TO TEMP.       -9.380E-05   AT NODE      60953   DOF 11
   INSTANCE: NDBR2P5                                                                         
          THERE IS ZERO HEAT FLUX EVERYWHERE
 

 ***WARNING: THERE IS ZERO HEAT FLUX EVERYWHERE IN THE MODEL BASED ON THE 
             DEFAULT CRITERION. PLEASE CHECK THE VALUE OF THE AVERAGE HEAT FLUX 
             DURING THE CURRENT ITERATION TO VERIFY THAT THE HEAT FLUX IS SMALL 
             ENOUGH TO BE TREATED AS ZERO. IF NOT, PLEASE USE THE SOLUTION 
             CONTROLS TO RESET THE CRITERION FOR ZERO HEAT FLUX.

 MAXIMUM NON-PRESCRIBED INCREMENT IN TEMPERATURE IS   1.234E-02

 ITERATION SUMMARY FOR THE INCREMENT:   1 TOTAL ITERATIONS, OF WHICH
   0 ARE SEVERE DISCONTINUITY ITERATIONS AND  1 ARE EQUILIBRIUM ITERATIONS.

 TIME INCREMENT COMPLETED   5.14    ,  FRACTION OF STEP COMPLETED  5.000E-02
 STEP TIME COMPLETED        25.7    ,  TOTAL TIME COMPLETED        1.826E+03


  INCREMENT     6 STARTS. ATTEMPT NUMBER  1, TIME INCREMENT   5.14    
 
	UNSYMMETRIC DIRECT SPARSE SOLVER RUNNING ON
 	1 HOST:        1 MPI RANK  x 8 THREADS
 	NUMBER OF EQUATIONS:     546192
 	NUMBER OF RHS:           1
 	NUMBER OF FLOPS:         3.990e+12

     CHECK POINT  START OF SOLVER     

     CHECK POINT  END OF SOLVER       

       ELAPSED USER TIME (SEC)      =   134.18    
       ELAPSED SYSTEM TIME (SEC)    =  0.46000    
       ELAPSED TOTAL CPU TIME (SEC) =   134.64    
       ELAPSED WALLCLOCK TIME (SEC) =           17

               CONVERGENCE CHECKS FOR EQUILIBRIUM ITERATION     1


 AVERAGE FORCE                      0.144       TIME AVG. FORCE       8.347E-02
 LARGEST RESIDUAL FORCE            -3.151E-08   AT NODE       1774   DOF  2
   INSTANCE: NDBR2P5                                                                         
 LARGEST INCREMENT OF DISP.         1.284E-05   AT NODE         21   DOF  2
   INSTANCE: NDBR2P5                                                                         
 LARGEST CORRECTION TO DISP.        9.492E-11   AT NODE        260   DOF  2
   INSTANCE: NDBR2P5                                                                         
          THE FORCE     EQUILIBRIUM EQUATIONS HAVE CONVERGED

 AVERAGE HEAT FLUX                  1.659E-14   TIME AVG. HEAT FLUX   1.000E-02
 LARGEST RESIDUAL HEAT FLUX        -3.468E-21   AT NODE       4053   DOF 11
   INSTANCE: NDBR2P5                                                                         
 LARGEST INCREMENT OF TEMP.         1.229E-02   AT NODE      32885   DOF 11
   INSTANCE: NDBR2P5                                                                         
 LARGEST CORRECTION TO TEMP.       -9.054E-05   AT NODE      60953   DOF 11
   INSTANCE: NDBR2P5                                                                         
          THERE IS ZERO HEAT FLUX EVERYWHERE
 

 ***WARNING: THERE IS ZERO HEAT FLUX EVERYWHERE IN THE MODEL BASED ON THE 
             DEFAULT CRITERION. PLEASE CHECK THE VALUE OF THE AVERAGE HEAT FLUX 
             DURING THE CURRENT ITERATION TO VERIFY THAT THE HEAT FLUX IS SMALL 
             ENOUGH TO BE TREATED AS ZERO. IF NOT, PLEASE USE THE SOLUTION 
             CONTROLS TO RESET THE CRITERION FOR ZERO HEAT FLUX.

 MAXIMUM NON-PRESCRIBED INCREMENT IN TEMPERATURE IS   1.229E-02

 ITERATION SUMMARY FOR THE INCREMENT:   1 TOTAL ITERATIONS, OF WHICH
   0 ARE SEVERE DISCONTINUITY ITERATIONS AND  1 ARE EQUILIBRIUM ITERATIONS.

 TIME INCREMENT COMPLETED   5.14    ,  FRACTION OF STEP COMPLETED  6.000E-02
 STEP TIME COMPLETED        30.8    ,  TOTAL TIME COMPLETED        1.831E+03


  INCREMENT     7 STARTS. ATTEMPT NUMBER  1, TIME INCREMENT   5.14    
 
	UNSYMMETRIC DIRECT SPARSE SOLVER RUNNING ON
 	1 HOST:        1 MPI RANK  x 8 THREADS
 	NUMBER OF EQUATIONS:     546192
 	NUMBER OF RHS:           1
 	NUMBER OF FLOPS:         3.990e+12

     CHECK POINT  START OF SOLVER     

     CHECK POINT  END OF SOLVER       

       ELAPSED USER TIME (SEC)      =   134.01    
       ELAPSED SYSTEM TIME (SEC)    =  0.45000    
       ELAPSED TOTAL CPU TIME (SEC) =   134.46    
       ELAPSED WALLCLOCK TIME (SEC) =           17

               CONVERGENCE CHECKS FOR EQUILIBRIUM ITERATION     1


 AVERAGE FORCE                      0.168       TIME AVG. FORCE       9.553E-02
 LARGEST RESIDUAL FORCE            -3.744E-08   AT NODE       1735   DOF  2
   INSTANCE: NDBR2P5                                                                         
 LARGEST INCREMENT OF DISP.         1.284E-05   AT NODE         21   DOF  2
   INSTANCE: NDBR2P5                                                                         
 LARGEST CORRECTION TO DISP.        9.492E-11   AT NODE        260   DOF  2
   INSTANCE: NDBR2P5                                                                         
          THE FORCE     EQUILIBRIUM EQUATIONS HAVE CONVERGED

 AVERAGE HEAT FLUX                  1.651E-14   TIME AVG. HEAT FLUX   1.000E-02
 LARGEST RESIDUAL HEAT FLUX        -3.450E-21   AT NODE       4053   DOF 11
   INSTANCE: NDBR2P5                                                                         
 LARGEST INCREMENT OF TEMP.         1.223E-02   AT NODE      32885   DOF 11
   INSTANCE: NDBR2P5                                                                         
 LARGEST CORRECTION TO TEMP.       -8.748E-05   AT NODE      60953   DOF 11
   INSTANCE: NDBR2P5                                                                         
          THERE IS ZERO HEAT FLUX EVERYWHERE
 

 ***WARNING: THERE IS ZERO HEAT FLUX EVERYWHERE IN THE MODEL BASED ON THE 
             DEFAULT CRITERION. PLEASE CHECK THE VALUE OF THE AVERAGE HEAT FLUX 
             DURING THE CURRENT ITERATION TO VERIFY THAT THE HEAT FLUX IS SMALL 
             ENOUGH TO BE TREATED AS ZERO. IF NOT, PLEASE USE THE SOLUTION 
             CONTROLS TO RESET THE CRITERION FOR ZERO HEAT FLUX.

 MAXIMUM NON-PRESCRIBED INCREMENT IN TEMPERATURE IS   1.223E-02

 ITERATION SUMMARY FOR THE INCREMENT:   1 TOTAL ITERATIONS, OF WHICH
   0 ARE SEVERE DISCONTINUITY ITERATIONS AND  1 ARE EQUILIBRIUM ITERATIONS.

 TIME INCREMENT COMPLETED   5.14    ,  FRACTION OF STEP COMPLETED  7.000E-02
 STEP TIME COMPLETED        36.0    ,  TOTAL TIME COMPLETED        1.836E+03


  INCREMENT     8 STARTS. ATTEMPT NUMBER  1, TIME INCREMENT   5.14    
 
	UNSYMMETRIC DIRECT SPARSE SOLVER RUNNING ON
 	1 HOST:        1 MPI RANK  x 8 THREADS
 	NUMBER OF EQUATIONS:     546192
 	NUMBER OF RHS:           1
 	NUMBER OF FLOPS:         3.990e+12

     CHECK POINT  START OF SOLVER     

     CHECK POINT  END OF SOLVER       

       ELAPSED USER TIME (SEC)      =   135.17    
       ELAPSED SYSTEM TIME (SEC)    =  0.51000    
       ELAPSED TOTAL CPU TIME (SEC) =   135.68    
       ELAPSED WALLCLOCK TIME (SEC) =           18

               CONVERGENCE CHECKS FOR EQUILIBRIUM ITERATION     1


 AVERAGE FORCE                      0.192       TIME AVG. FORCE       0.108    
 LARGEST RESIDUAL FORCE            -4.336E-08   AT NODE       1735   DOF  2
   INSTANCE: NDBR2P5                                                                         
 LARGEST INCREMENT OF DISP.         1.284E-05   AT NODE         21   DOF  2
   INSTANCE: NDBR2P5                                                                         
 LARGEST CORRECTION TO DISP.        9.491E-11   AT NODE        260   DOF  2
   INSTANCE: NDBR2P5                                                                         
          THE FORCE     EQUILIBRIUM EQUATIONS HAVE CONVERGED

 AVERAGE HEAT FLUX                  1.643E-14   TIME AVG. HEAT FLUX   1.000E-02
 LARGEST RESIDUAL HEAT FLUX        -3.433E-21   AT NODE       4053   DOF 11
   INSTANCE: NDBR2P5                                                                         
 LARGEST INCREMENT OF TEMP.         1.217E-02   AT NODE      32885   DOF 11
   INSTANCE: NDBR2P5                                                                         
 LARGEST CORRECTION TO TEMP.       -8.461E-05   AT NODE      60953   DOF 11
   INSTANCE: NDBR2P5                                                                         
          THERE IS ZERO HEAT FLUX EVERYWHERE
 

 ***WARNING: THERE IS ZERO HEAT FLUX EVERYWHERE IN THE MODEL BASED ON THE 
             DEFAULT CRITERION. PLEASE CHECK THE VALUE OF THE AVERAGE HEAT FLUX 
             DURING THE CURRENT ITERATION TO VERIFY THAT THE HEAT FLUX IS SMALL 
             ENOUGH TO BE TREATED AS ZERO. IF NOT, PLEASE USE THE SOLUTION 
             CONTROLS TO RESET THE CRITERION FOR ZERO HEAT FLUX.

 MAXIMUM NON-PRESCRIBED INCREMENT IN TEMPERATURE IS   1.217E-02

 ITERATION SUMMARY FOR THE INCREMENT:   1 TOTAL ITERATIONS, OF WHICH
   0 ARE SEVERE DISCONTINUITY ITERATIONS AND  1 ARE EQUILIBRIUM ITERATIONS.

 TIME INCREMENT COMPLETED   5.14    ,  FRACTION OF STEP COMPLETED  8.000E-02
 STEP TIME COMPLETED        41.1    ,  TOTAL TIME COMPLETED        1.841E+03


  INCREMENT     9 STARTS. ATTEMPT NUMBER  1, TIME INCREMENT   5.14    
 
	UNSYMMETRIC DIRECT SPARSE SOLVER RUNNING ON
 	1 HOST:        1 MPI RANK  x 8 THREADS
 	NUMBER OF EQUATIONS:     546192
 	NUMBER OF RHS:           1
 	NUMBER OF FLOPS:         3.990e+12

     CHECK POINT  START OF SOLVER     

     CHECK POINT  END OF SOLVER       

       ELAPSED USER TIME (SEC)      =   135.91    
       ELAPSED SYSTEM TIME (SEC)    =  0.44000    
       ELAPSED TOTAL CPU TIME (SEC) =   136.35    
       ELAPSED WALLCLOCK TIME (SEC) =           17

               CONVERGENCE CHECKS FOR EQUILIBRIUM ITERATION     1


 AVERAGE FORCE                      0.216       TIME AVG. FORCE       0.120    
 LARGEST RESIDUAL FORCE            -4.929E-08   AT NODE       1735   DOF  2
   INSTANCE: NDBR2P5                                                                         
 LARGEST INCREMENT OF DISP.         1.284E-05   AT NODE         21   DOF  2
   INSTANCE: NDBR2P5                                                                         
 LARGEST CORRECTION TO DISP.        9.490E-11   AT NODE        260   DOF  2
   INSTANCE: NDBR2P5                                                                         
          THE FORCE     EQUILIBRIUM EQUATIONS HAVE CONVERGED

 AVERAGE HEAT FLUX                  1.636E-14   TIME AVG. HEAT FLUX   1.000E-02
 LARGEST RESIDUAL HEAT FLUX        -3.415E-21   AT NODE       4053   DOF 11
   INSTANCE: NDBR2P5                                                                         
 LARGEST INCREMENT OF TEMP.         1.211E-02   AT NODE      32885   DOF 11
   INSTANCE: NDBR2P5                                                                         
 LARGEST CORRECTION TO TEMP.       -8.190E-05   AT NODE      60953   DOF 11
   INSTANCE: NDBR2P5                                                                         
          THERE IS ZERO HEAT FLUX EVERYWHERE
 

 ***WARNING: THERE IS ZERO HEAT FLUX EVERYWHERE IN THE MODEL BASED ON THE 
             DEFAULT CRITERION. PLEASE CHECK THE VALUE OF THE AVERAGE HEAT FLUX 
             DURING THE CURRENT ITERATION TO VERIFY THAT THE HEAT FLUX IS SMALL 
             ENOUGH TO BE TREATED AS ZERO. IF NOT, PLEASE USE THE SOLUTION 
             CONTROLS TO RESET THE CRITERION FOR ZERO HEAT FLUX.

 MAXIMUM NON-PRESCRIBED INCREMENT IN TEMPERATURE IS   1.211E-02

 ITERATION SUMMARY FOR THE INCREMENT:   1 TOTAL ITERATIONS, OF WHICH
   0 ARE SEVERE DISCONTINUITY ITERATIONS AND  1 ARE EQUILIBRIUM ITERATIONS.

 TIME INCREMENT COMPLETED   5.14    ,  FRACTION OF STEP COMPLETED  9.000E-02
 STEP TIME COMPLETED        46.3    ,  TOTAL TIME COMPLETED        1.846E+03


  INCREMENT    10 STARTS. ATTEMPT NUMBER  1, TIME INCREMENT   5.14    
 
	UNSYMMETRIC DIRECT SPARSE SOLVER RUNNING ON
 	1 HOST:        1 MPI RANK  x 8 THREADS
 	NUMBER OF EQUATIONS:     546192
 	NUMBER OF RHS:           1
 	NUMBER OF FLOPS:         3.990e+12

     CHECK POINT  START OF SOLVER     

     CHECK POINT  END OF SOLVER       

       ELAPSED USER TIME (SEC)      =   137.29    
       ELAPSED SYSTEM TIME (SEC)    =  0.43000    
       ELAPSED TOTAL CPU TIME (SEC) =   137.72    
       ELAPSED WALLCLOCK TIME (SEC) =           17

               CONVERGENCE CHECKS FOR EQUILIBRIUM ITERATION     1


 AVERAGE FORCE                      0.240       TIME AVG. FORCE       0.132    
 LARGEST RESIDUAL FORCE            -5.522E-08   AT NODE       1735   DOF  2
   INSTANCE: NDBR2P5                                                                         
 LARGEST INCREMENT OF DISP.         1.284E-05   AT NODE         21   DOF  2
   INSTANCE: NDBR2P5                                                                         
 LARGEST CORRECTION TO DISP.        9.490E-11   AT NODE        260   DOF  2
   INSTANCE: NDBR2P5                                                                         
          THE FORCE     EQUILIBRIUM EQUATIONS HAVE CONVERGED

 AVERAGE HEAT FLUX                  1.628E-14   TIME AVG. HEAT FLUX   1.000E-02
 LARGEST RESIDUAL HEAT FLUX        -3.397E-21   AT NODE       4053   DOF 11
   INSTANCE: NDBR2P5                                                                         
 LARGEST INCREMENT OF TEMP.         1.206E-02   AT NODE      29790   DOF 11
   INSTANCE: NDBR2P5                                                                         
 LARGEST CORRECTION TO TEMP.       -7.936E-05   AT NODE      60953   DOF 11
   INSTANCE: NDBR2P5                                                                         
          THERE IS ZERO HEAT FLUX EVERYWHERE
 

 ***WARNING: THERE IS ZERO HEAT FLUX EVERYWHERE IN THE MODEL BASED ON THE 
             DEFAULT CRITERION. PLEASE CHECK THE VALUE OF THE AVERAGE HEAT FLUX 
             DURING THE CURRENT ITERATION TO VERIFY THAT THE HEAT FLUX IS SMALL 
             ENOUGH TO BE TREATED AS ZERO. IF NOT, PLEASE USE THE SOLUTION 
             CONTROLS TO RESET THE CRITERION FOR ZERO HEAT FLUX.

 MAXIMUM NON-PRESCRIBED INCREMENT IN TEMPERATURE IS   1.206E-02

 ITERATION SUMMARY FOR THE INCREMENT:   1 TOTAL ITERATIONS, OF WHICH
   0 ARE SEVERE DISCONTINUITY ITERATIONS AND  1 ARE EQUILIBRIUM ITERATIONS.

 TIME INCREMENT COMPLETED   5.14    ,  FRACTION OF STEP COMPLETED  0.100    
 STEP TIME COMPLETED        51.4    ,  TOTAL TIME COMPLETED        1.851E+03


  INCREMENT    11 STARTS. ATTEMPT NUMBER  1, TIME INCREMENT   5.14    
 
	UNSYMMETRIC DIRECT SPARSE SOLVER RUNNING ON
 	1 HOST:        1 MPI RANK  x 8 THREADS
 	NUMBER OF EQUATIONS:     546192
 	NUMBER OF RHS:           1
 	NUMBER OF FLOPS:         3.990e+12

     CHECK POINT  START OF SOLVER     

     CHECK POINT  END OF SOLVER       

       ELAPSED USER TIME (SEC)      =   134.90    
       ELAPSED SYSTEM TIME (SEC)    =  0.45000    
       ELAPSED TOTAL CPU TIME (SEC) =   135.35    
       ELAPSED WALLCLOCK TIME (SEC) =           17

               CONVERGENCE CHECKS FOR EQUILIBRIUM ITERATION     1


 AVERAGE FORCE                      0.264       TIME AVG. FORCE       0.144    
 LARGEST RESIDUAL FORCE            -6.114E-08   AT NODE       1735   DOF  2
   INSTANCE: NDBR2P5                                                                         
 LARGEST INCREMENT OF DISP.         1.284E-05   AT NODE         21   DOF  2
   INSTANCE: NDBR2P5                                                                         
 LARGEST CORRECTION TO DISP.        9.489E-11   AT NODE        260   DOF  2
   INSTANCE: NDBR2P5                                                                         
          THE FORCE     EQUILIBRIUM EQUATIONS HAVE CONVERGED

 AVERAGE HEAT FLUX                  1.620E-14   TIME AVG. HEAT FLUX   1.000E-02
 LARGEST RESIDUAL HEAT FLUX        -3.380E-21   AT NODE       4053   DOF 11
   INSTANCE: NDBR2P5                                                                         
 LARGEST INCREMENT OF TEMP.         1.200E-02   AT NODE      29790   DOF 11
   INSTANCE: NDBR2P5                                                                         
 LARGEST CORRECTION TO TEMP.       -7.696E-05   AT NODE      60953   DOF 11
   INSTANCE: NDBR2P5                                                                         
          THERE IS ZERO HEAT FLUX EVERYWHERE
 

 ***WARNING: THERE IS ZERO HEAT FLUX EVERYWHERE IN THE MODEL BASED ON THE 
             DEFAULT CRITERION. PLEASE CHECK THE VALUE OF THE AVERAGE HEAT FLUX 
             DURING THE CURRENT ITERATION TO VERIFY THAT THE HEAT FLUX IS SMALL 
             ENOUGH TO BE TREATED AS ZERO. IF NOT, PLEASE USE THE SOLUTION 
             CONTROLS TO RESET THE CRITERION FOR ZERO HEAT FLUX.

 MAXIMUM NON-PRESCRIBED INCREMENT IN TEMPERATURE IS   1.200E-02

 ITERATION SUMMARY FOR THE INCREMENT:   1 TOTAL ITERATIONS, OF WHICH
   0 ARE SEVERE DISCONTINUITY ITERATIONS AND  1 ARE EQUILIBRIUM ITERATIONS.

 TIME INCREMENT COMPLETED   5.14    ,  FRACTION OF STEP COMPLETED  0.110    
 STEP TIME COMPLETED        56.5    ,  TOTAL TIME COMPLETED        1.857E+03


  INCREMENT    12 STARTS. ATTEMPT NUMBER  1, TIME INCREMENT   5.14    
 
	UNSYMMETRIC DIRECT SPARSE SOLVER RUNNING ON
 	1 HOST:        1 MPI RANK  x 8 THREADS
 	NUMBER OF EQUATIONS:     546192
 	NUMBER OF RHS:           1
 	NUMBER OF FLOPS:         3.990e+12

     CHECK POINT  START OF SOLVER     

     CHECK POINT  END OF SOLVER       

       ELAPSED USER TIME (SEC)      =   134.32    
       ELAPSED SYSTEM TIME (SEC)    =  0.43000    
       ELAPSED TOTAL CPU TIME (SEC) =   134.75    
       ELAPSED WALLCLOCK TIME (SEC) =           17

               CONVERGENCE CHECKS FOR EQUILIBRIUM ITERATION     1


 AVERAGE FORCE                      0.288       TIME AVG. FORCE       0.156    
 LARGEST RESIDUAL FORCE            -6.705E-08   AT NODE       1774   DOF  2
   INSTANCE: NDBR2P5                                                                         
 LARGEST INCREMENT OF DISP.         1.284E-05   AT NODE         21   DOF  2
   INSTANCE: NDBR2P5                                                                         
 LARGEST CORRECTION TO DISP.        9.488E-11   AT NODE        260   DOF  2
   INSTANCE: NDBR2P5                                                                         
          THE FORCE     EQUILIBRIUM EQUATIONS HAVE CONVERGED

 AVERAGE HEAT FLUX                  1.613E-14   TIME AVG. HEAT FLUX   1.000E-02
 LARGEST RESIDUAL HEAT FLUX        -3.362E-21   AT NODE       4053   DOF 11
   INSTANCE: NDBR2P5                                                                         
 LARGEST INCREMENT OF TEMP.         1.195E-02   AT NODE      10300   DOF 11
[...]
             DURING THE CURRENT ITERATION TO VERIFY THAT THE HEAT FLUX IS SMALL 
             ENOUGH TO BE TREATED AS ZERO. IF NOT, PLEASE USE THE SOLUTION 
             CONTROLS TO RESET THE CRITERION FOR ZERO HEAT FLUX.
 
	UNSYMMETRIC DIRECT SPARSE SOLVER RUNNING ON
 	1 HOST:        1 MPI RANK  x 8 THREADS
 	NUMBER OF EQUATIONS:     546192
 	NUMBER OF RHS:           1
 	NUMBER OF FLOPS:         3.990e+12

     CHECK POINT  START OF SOLVER     

     CHECK POINT  END OF SOLVER       

       ELAPSED USER TIME (SEC)      =   137.72    
       ELAPSED SYSTEM TIME (SEC)    =  0.45000    
       ELAPSED TOTAL CPU TIME (SEC) =   138.17    
       ELAPSED WALLCLOCK TIME (SEC) =           17

               CONVERGENCE CHECKS FOR EQUILIBRIUM ITERATION     3


 AVERAGE FORCE                       1.25       TIME AVG. FORCE        1.01    
 LARGEST RESIDUAL FORCE             6.585E-02   AT NODE     101264   DOF  3
   INSTANCE: NDBR2P5                                                                         
 LARGEST INCREMENT OF DISP.         2.802E-05   AT NODE      98166   DOF  2
   INSTANCE: NDBR2P5                                                                         
 LARGEST CORRECTION TO DISP.        6.154E-07   AT NODE      96012   DOF  3
   INSTANCE: NDBR2P5                                                                         
          FORCE     EQUILIBRIUM NOT ACHIEVED WITHIN TOLERANCE.

 AVERAGE HEAT FLUX                  1.076E-14   TIME AVG. HEAT FLUX   1.000E-02
 LARGEST RESIDUAL HEAT FLUX        -1.005E-14   AT NODE      96338   DOF 11
   INSTANCE: NDBR2P5                                                                         
 LARGEST INCREMENT OF TEMP.        -0.140       AT NODE      93637   DOF 11
   INSTANCE: NDBR2P5                                                                         
 LARGEST CORRECTION TO TEMP.       -7.110E-02   AT NODE      94421   DOF 11
   INSTANCE: NDBR2P5                                                                         
          THERE IS ZERO HEAT FLUX EVERYWHERE
 

 ***WARNING: THERE IS ZERO HEAT FLUX EVERYWHERE IN THE MODEL BASED ON THE 
             DEFAULT CRITERION. PLEASE CHECK THE VALUE OF THE AVERAGE HEAT FLUX 
             DURING THE CURRENT ITERATION TO VERIFY THAT THE HEAT FLUX IS SMALL 
             ENOUGH TO BE TREATED AS ZERO. IF NOT, PLEASE USE THE SOLUTION 
             CONTROLS TO RESET THE CRITERION FOR ZERO HEAT FLUX.
 
	UNSYMMETRIC DIRECT SPARSE SOLVER RUNNING ON
 	1 HOST:        1 MPI RANK  x 8 THREADS
 	NUMBER OF EQUATIONS:     546192
 	NUMBER OF RHS:           1
 	NUMBER OF FLOPS:         3.990e+12

     CHECK POINT  START OF SOLVER     

     CHECK POINT  END OF SOLVER       

       ELAPSED USER TIME (SEC)      =   135.57    
       ELAPSED SYSTEM TIME (SEC)    =  0.46000    
       ELAPSED TOTAL CPU TIME (SEC) =   136.03    
       ELAPSED WALLCLOCK TIME (SEC) =           17

               CONVERGENCE CHECKS FOR EQUILIBRIUM ITERATION     4


 AVERAGE FORCE                       1.25       TIME AVG. FORCE        1.01    
 LARGEST RESIDUAL FORCE             1.581E-02   AT NODE     101388   DOF  3
   INSTANCE: NDBR2P5                                                                         
 LARGEST INCREMENT OF DISP.         2.803E-05   AT NODE      98166   DOF  2
   INSTANCE: NDBR2P5                                                                         
 LARGEST CORRECTION TO DISP.        4.804E-08   AT NODE      96012   DOF  3
   INSTANCE: NDBR2P5                                                                         
          FORCE     EQUILIBRIUM NOT ACHIEVED WITHIN TOLERANCE.

 AVERAGE HEAT FLUX                  1.076E-14   TIME AVG. HEAT FLUX   1.000E-02
 LARGEST RESIDUAL HEAT FLUX        -2.431E-15   AT NODE     104382   DOF 11
   INSTANCE: NDBR2P5                                                                         
 LARGEST INCREMENT OF TEMP.        -0.136       AT NODE      93466   DOF 11
   INSTANCE: NDBR2P5                                                                         
 LARGEST CORRECTION TO TEMP.       -6.575E-02   AT NODE      96338   DOF 11
   INSTANCE: NDBR2P5                                                                         
          THERE IS ZERO HEAT FLUX EVERYWHERE
 

 ***WARNING: THERE IS ZERO HEAT FLUX EVERYWHERE IN THE MODEL BASED ON THE 
             DEFAULT CRITERION. PLEASE CHECK THE VALUE OF THE AVERAGE HEAT FLUX 
             DURING THE CURRENT ITERATION TO VERIFY THAT THE HEAT FLUX IS SMALL 
             ENOUGH TO BE TREATED AS ZERO. IF NOT, PLEASE USE THE SOLUTION 
             CONTROLS TO RESET THE CRITERION FOR ZERO HEAT FLUX.
 
	UNSYMMETRIC DIRECT SPARSE SOLVER RUNNING ON
 	1 HOST:        1 MPI RANK  x 8 THREADS
 	NUMBER OF EQUATIONS:     546192
 	NUMBER OF RHS:           1
 	NUMBER OF FLOPS:         3.990e+12

     CHECK POINT  START OF SOLVER     

     CHECK POINT  END OF SOLVER       

       ELAPSED USER TIME (SEC)      =   134.04    
       ELAPSED SYSTEM TIME (SEC)    =  0.47000    
       ELAPSED TOTAL CPU TIME (SEC) =   134.51    
       ELAPSED WALLCLOCK TIME (SEC) =           17

               CONVERGENCE CHECKS FOR EQUILIBRIUM ITERATION     5


 AVERAGE FORCE                       1.25       TIME AVG. FORCE        1.01    
 LARGEST RESIDUAL FORCE             1.215E-03   AT NODE     124623   DOF  3
   INSTANCE: NDBR2P5                                                                         
 LARGEST INCREMENT OF DISP.         2.803E-05   AT NODE      98166   DOF  2
   INSTANCE: NDBR2P5                                                                         
 LARGEST CORRECTION TO DISP.        4.702E-09   AT NODE      96012   DOF  3
   INSTANCE: NDBR2P5                                                                         
          THE FORCE     EQUILIBRIUM EQUATIONS HAVE CONVERGED

 AVERAGE HEAT FLUX                  1.076E-14   TIME AVG. HEAT FLUX   1.000E-02
 LARGEST RESIDUAL HEAT FLUX        -1.711E-15   AT NODE     136515   DOF 11
   INSTANCE: NDBR2P5                                                                         
 LARGEST INCREMENT OF TEMP.        -0.135       AT NODE      93466   DOF 11
   INSTANCE: NDBR2P5                                                                         
 LARGEST CORRECTION TO TEMP.       -1.648E-02   AT NODE     104382   DOF 11
   INSTANCE: NDBR2P5                                                                         
          THERE IS ZERO HEAT FLUX EVERYWHERE
 

 ***WARNING: THERE IS ZERO HEAT FLUX EVERYWHERE IN THE MODEL BASED ON THE 
             DEFAULT CRITERION. PLEASE CHECK THE VALUE OF THE AVERAGE HEAT FLUX 
             DURING THE CURRENT ITERATION TO VERIFY THAT THE HEAT FLUX IS SMALL 
             ENOUGH TO BE TREATED AS ZERO. IF NOT, PLEASE USE THE SOLUTION 
             CONTROLS TO RESET THE CRITERION FOR ZERO HEAT FLUX.

 MAXIMUM NON-PRESCRIBED INCREMENT IN TEMPERATURE IS  -0.135    

 ITERATION SUMMARY FOR THE INCREMENT:   5 TOTAL ITERATIONS, OF WHICH
   0 ARE SEVERE DISCONTINUITY ITERATIONS AND  5 ARE EQUILIBRIUM ITERATIONS.

 TIME INCREMENT COMPLETED   5.14    ,  FRACTION OF STEP COMPLETED  0.990    
 STEP TIME COMPLETED        509.    ,  TOTAL TIME COMPLETED        2.309E+03


  INCREMENT   103 STARTS. ATTEMPT NUMBER  1, TIME INCREMENT   5.14    
 
	UNSYMMETRIC DIRECT SPARSE SOLVER RUNNING ON
 	1 HOST:        1 MPI RANK  x 8 THREADS
 	NUMBER OF EQUATIONS:     546192
 	NUMBER OF RHS:           1
 	NUMBER OF FLOPS:         3.990e+12

     CHECK POINT  START OF SOLVER     

     CHECK POINT  END OF SOLVER       

       ELAPSED USER TIME (SEC)      =   134.08    
       ELAPSED SYSTEM TIME (SEC)    =  0.44000    
       ELAPSED TOTAL CPU TIME (SEC) =   134.52    
       ELAPSED WALLCLOCK TIME (SEC) =           17

               CONVERGENCE CHECKS FOR EQUILIBRIUM ITERATION     1


 AVERAGE FORCE                       1.16       TIME AVG. FORCE        1.01    
 LARGEST RESIDUAL FORCE             -2.29       AT NODE     116950   DOF  3
   INSTANCE: NDBR2P5                                                                         
 LARGEST INCREMENT OF DISP.         3.807E-05   AT NODE      97571   DOF  2
   INSTANCE: NDBR2P5                                                                         
 LARGEST CORRECTION TO DISP.       -1.148E-05   AT NODE      93829   DOF  3
   INSTANCE: NDBR2P5                                                                         
          FORCE     EQUILIBRIUM NOT ACHIEVED WITHIN TOLERANCE.

 AVERAGE HEAT FLUX                  1.073E-14   TIME AVG. HEAT FLUX   1.000E-02
 LARGEST RESIDUAL HEAT FLUX         1.899E-14   AT NODE      96071   DOF 11
   INSTANCE: NDBR2P5                                                                         
 LARGEST INCREMENT OF TEMP.        -9.291E-02   AT NODE      95259   DOF 11
   INSTANCE: NDBR2P5                                                                         
 LARGEST CORRECTION TO TEMP.        0.171       AT NODE      94299   DOF 11
   INSTANCE: NDBR2P5                                                                         
          THERE IS ZERO HEAT FLUX EVERYWHERE
 

 ***WARNING: THERE IS ZERO HEAT FLUX EVERYWHERE IN THE MODEL BASED ON THE 
             DEFAULT CRITERION. PLEASE CHECK THE VALUE OF THE AVERAGE HEAT FLUX 
             DURING THE CURRENT ITERATION TO VERIFY THAT THE HEAT FLUX IS SMALL 
             ENOUGH TO BE TREATED AS ZERO. IF NOT, PLEASE USE THE SOLUTION 
             CONTROLS TO RESET THE CRITERION FOR ZERO HEAT FLUX.
 
	UNSYMMETRIC DIRECT SPARSE SOLVER RUNNING ON
 	1 HOST:        1 MPI RANK  x 8 THREADS
 	NUMBER OF EQUATIONS:     546192
 	NUMBER OF RHS:           1
 	NUMBER OF FLOPS:         3.990e+12

     CHECK POINT  START OF SOLVER     

     CHECK POINT  END OF SOLVER       

       ELAPSED USER TIME (SEC)      =   133.78    
       ELAPSED SYSTEM TIME (SEC)    =  0.44000    
       ELAPSED TOTAL CPU TIME (SEC) =   134.22    
       ELAPSED WALLCLOCK TIME (SEC) =           17

               CONVERGENCE CHECKS FOR EQUILIBRIUM ITERATION     2


 AVERAGE FORCE                       1.17       TIME AVG. FORCE        1.01    
 LARGEST RESIDUAL FORCE            -0.315       AT NODE     110254   DOF  3
   INSTANCE: NDBR2P5                                                                         
 LARGEST INCREMENT OF DISP.         3.658E-05   AT NODE      97571   DOF  2
   INSTANCE: NDBR2P5                                                                         
 LARGEST CORRECTION TO DISP.        2.128E-06   AT NODE     117071   DOF  3
   INSTANCE: NDBR2P5                                                                         
          FORCE     EQUILIBRIUM NOT ACHIEVED WITHIN TOLERANCE.

 AVERAGE HEAT FLUX                  1.073E-14   TIME AVG. HEAT FLUX   1.000E-02
 LARGEST RESIDUAL HEAT FLUX         1.486E-14   AT NODE      96746   DOF 11
   INSTANCE: NDBR2P5                                                                         
 LARGEST INCREMENT OF TEMP.        -0.147       AT NODE      93911   DOF 11
   INSTANCE: NDBR2P5                                                                         
 LARGEST CORRECTION TO TEMP.        0.116       AT NODE      97114   DOF 11
   INSTANCE: NDBR2P5                                                                         
          THERE IS ZERO HEAT FLUX EVERYWHERE
 

 ***WARNING: THERE IS ZERO HEAT FLUX EVERYWHERE IN THE MODEL BASED ON THE 
             DEFAULT CRITERION. PLEASE CHECK THE VALUE OF THE AVERAGE HEAT FLUX 
             DURING THE CURRENT ITERATION TO VERIFY THAT THE HEAT FLUX IS SMALL 
             ENOUGH TO BE TREATED AS ZERO. IF NOT, PLEASE USE THE SOLUTION 
             CONTROLS TO RESET THE CRITERION FOR ZERO HEAT FLUX.
 
	UNSYMMETRIC DIRECT SPARSE SOLVER RUNNING ON
 	1 HOST:        1 MPI RANK  x 8 THREADS
 	NUMBER OF EQUATIONS:     546192
 	NUMBER OF RHS:           1
 	NUMBER OF FLOPS:         3.990e+12

     CHECK POINT  START OF SOLVER     

     CHECK POINT  END OF SOLVER       

       ELAPSED USER TIME (SEC)      =   136.30    
       ELAPSED SYSTEM TIME (SEC)    =  0.46000    
       ELAPSED TOTAL CPU TIME (SEC) =   136.76    
       ELAPSED WALLCLOCK TIME (SEC) =           18

               CONVERGENCE CHECKS FOR EQUILIBRIUM ITERATION     3


 AVERAGE FORCE                       1.18       TIME AVG. FORCE        1.01    
 LARGEST RESIDUAL FORCE            -0.138       AT NODE     136111   DOF  3
   INSTANCE: NDBR2P5                                                                         
 LARGEST INCREMENT OF DISP.         3.526E-05   AT NODE      98166   DOF  2
   INSTANCE: NDBR2P5                                                                         
 LARGEST CORRECTION TO DISP.        1.827E-06   AT NODE      96012   DOF  3
   INSTANCE: NDBR2P5                                                                         
          FORCE     EQUILIBRIUM NOT ACHIEVED WITHIN TOLERANCE.

 AVERAGE HEAT FLUX                  1.073E-14   TIME AVG. HEAT FLUX   1.000E-02
 LARGEST RESIDUAL HEAT FLUX        -1.527E-14   AT NODE      98654   DOF 11
   INSTANCE: NDBR2P5                                                                         
 LARGEST INCREMENT OF TEMP.        -0.146       AT NODE      98432   DOF 11
   INSTANCE: NDBR2P5                                                                         
 LARGEST CORRECTION TO TEMP.        9.451E-02   AT NODE      96746   DOF 11
   INSTANCE: NDBR2P5                                                                         
          THERE IS ZERO HEAT FLUX EVERYWHERE
 

 ***WARNING: THERE IS ZERO HEAT FLUX EVERYWHERE IN THE MODEL BASED ON THE 
             DEFAULT CRITERION. PLEASE CHECK THE VALUE OF THE AVERAGE HEAT FLUX 
             DURING THE CURRENT ITERATION TO VERIFY THAT THE HEAT FLUX IS SMALL 
             ENOUGH TO BE TREATED AS ZERO. IF NOT, PLEASE USE THE SOLUTION 
             CONTROLS TO RESET THE CRITERION FOR ZERO HEAT FLUX.
 
	UNSYMMETRIC DIRECT SPARSE SOLVER RUNNING ON
 	1 HOST:        1 MPI RANK  x 8 THREADS
 	NUMBER OF EQUATIONS:     546192
 	NUMBER OF RHS:           1
 	NUMBER OF FLOPS:         3.990e+12

     CHECK POINT  START OF SOLVER     

     CHECK POINT  END OF SOLVER       

       ELAPSED USER TIME (SEC)      =   137.54    
       ELAPSED SYSTEM TIME (SEC)    =  0.46000    
       ELAPSED TOTAL CPU TIME (SEC) =   138.00    
       ELAPSED WALLCLOCK TIME (SEC) =           18

               CONVERGENCE CHECKS FOR EQUILIBRIUM ITERATION     4


 AVERAGE FORCE                       1.18       TIME AVG. FORCE        1.01    
 LARGEST RESIDUAL FORCE             2.812E-02   AT NODE     101263   DOF  3
   INSTANCE: NDBR2P5                                                                         
 LARGEST INCREMENT OF DISP.         3.532E-05   AT NODE      98166   DOF  2
   INSTANCE: NDBR2P5                                                                         
 LARGEST CORRECTION TO DISP.        1.625E-07   AT NODE      96012   DOF  3
   INSTANCE: NDBR2P5                                                                         
          FORCE     EQUILIBRIUM NOT ACHIEVED WITHIN TOLERANCE.

 AVERAGE HEAT FLUX                  1.073E-14   TIME AVG. HEAT FLUX   1.000E-02
 LARGEST RESIDUAL HEAT FLUX        -7.620E-15   AT NODE      97325   DOF 11
   INSTANCE: NDBR2P5                                                                         
 LARGEST INCREMENT OF TEMP.        -0.141       AT NODE      98432   DOF 11
   INSTANCE: NDBR2P5                                                                         
 LARGEST CORRECTION TO TEMP.       -9.919E-02   AT NODE      96457   DOF 11
   INSTANCE: NDBR2P5                                                                         
          THERE IS ZERO HEAT FLUX EVERYWHERE
 

 ***WARNING: THERE IS ZERO HEAT FLUX EVERYWHERE IN THE MODEL BASED ON THE 
             DEFAULT CRITERION. PLEASE CHECK THE VALUE OF THE AVERAGE HEAT FLUX 
             DURING THE CURRENT ITERATION TO VERIFY THAT THE HEAT FLUX IS SMALL 
             ENOUGH TO BE TREATED AS ZERO. IF NOT, PLEASE USE THE SOLUTION 
             CONTROLS TO RESET THE CRITERION FOR ZERO HEAT FLUX.
 
	UNSYMMETRIC DIRECT SPARSE SOLVER RUNNING ON
 	1 HOST:        1 MPI RANK  x 8 THREADS
 	NUMBER OF EQUATIONS:     546192
 	NUMBER OF RHS:           1
 	NUMBER OF FLOPS:         3.990e+12

     CHECK POINT  START OF SOLVER     

     CHECK POINT  END OF SOLVER       

       ELAPSED USER TIME (SEC)      =   136.08    
       ELAPSED SYSTEM TIME (SEC)    =  0.45000    
       ELAPSED TOTAL CPU TIME (SEC) =   136.53    
       ELAPSED WALLCLOCK TIME (SEC) =           18

               CONVERGENCE CHECKS FOR EQUILIBRIUM ITERATION     5


 AVERAGE FORCE                       1.18       TIME AVG. FORCE        1.01    
 LARGEST RESIDUAL FORCE             2.081E-03   AT NODE     122889   DOF  3
   INSTANCE: NDBR2P5                                                                         
 LARGEST INCREMENT OF DISP.         3.531E-05   AT NODE      98166   DOF  2
   INSTANCE: NDBR2P5                                                                         
 LARGEST CORRECTION TO DISP.        2.909E-08   AT NODE      96012   DOF  3
   INSTANCE: NDBR2P5                                                                         
          THE FORCE     EQUILIBRIUM EQUATIONS HAVE CONVERGED

 AVERAGE HEAT FLUX                  1.073E-14   TIME AVG. HEAT FLUX   1.000E-02
 LARGEST RESIDUAL HEAT FLUX        -2.912E-15   AT NODE     125220   DOF 11
   INSTANCE: NDBR2P5                                                                         
 LARGEST INCREMENT OF TEMP.        -0.140       AT NODE      98432   DOF 11
   INSTANCE: NDBR2P5                                                                         
 LARGEST CORRECTION TO TEMP.       -5.114E-02   AT NODE      97325   DOF 11
   INSTANCE: NDBR2P5                                                                         
          THERE IS ZERO HEAT FLUX EVERYWHERE
 

 ***WARNING: THERE IS ZERO HEAT FLUX EVERYWHERE IN THE MODEL BASED ON THE 
             DEFAULT CRITERION. PLEASE CHECK THE VALUE OF THE AVERAGE HEAT FLUX 
             DURING THE CURRENT ITERATION TO VERIFY THAT THE HEAT FLUX IS SMALL 
             ENOUGH TO BE TREATED AS ZERO. IF NOT, PLEASE USE THE SOLUTION 
             CONTROLS TO RESET THE CRITERION FOR ZERO HEAT FLUX.

 MAXIMUM NON-PRESCRIBED INCREMENT IN TEMPERATURE IS  -0.140    

 ITERATION SUMMARY FOR THE INCREMENT:   5 TOTAL ITERATIONS, OF WHICH
   0 ARE SEVERE DISCONTINUITY ITERATIONS AND  5 ARE EQUILIBRIUM ITERATIONS.

 TIME INCREMENT COMPLETED   5.14    ,  FRACTION OF STEP COMPLETED   1.00    
 STEP TIME COMPLETED        514.    ,  TOTAL TIME COMPLETED        2.314E+03


          THE ANALYSIS HAS BEEN COMPLETED



     ANALYSIS SUMMARY:
     TOTAL OF        108  INCREMENTS
                       0  CUTBACKS IN AUTOMATIC INCREMENTATION
                     229  ITERATIONS INCLUDING CONTACT ITERATIONS IF PRESENT
                     229  PASSES THROUGH THE EQUATION SOLVER OF WHICH 
                     229  INVOLVE MATRIX DECOMPOSITION, INCLUDING
                       0  DECOMPOSITION(S) OF THE MASS MATRIX
                       1  REORDERING OF EQUATIONS TO MINIMIZE WAVEFRONT
                       0  ADDITIONAL RESIDUAL EVALUATIONS FOR LINE SEARCHES
                       0  ADDITIONAL OPERATOR EVALUATIONS FOR LINE SEARCHES
                       6  WARNING MESSAGES DURING USER INPUT PROCESSING
                25247625  WARNING MESSAGES DURING ANALYSIS
                25247396  ANALYSIS WARNINGS ARE NUMERICAL PROBLEM MESSAGES
                       0  ANALYSIS WARNINGS ARE NEGATIVE EIGENVALUE MESSAGES
                       0  ERROR MESSAGES



     JOB TIME SUMMARY
       USER TIME (SEC)      =     3.88E+04
       SYSTEM TIME (SEC)    =     4.92E+02
       TOTAL CPU TIME (SEC) =     3.93E+04
       WALLCLOCK TIME (SEC) =         5619
       MEMORY PEAK (GB)     =           18
