 Abaqus/Standard 2023                  DATE 08-Dec-2024 TIME 19:27:26
 SUMMARY OF JOB INFORMATION:
 STEP  INC ATT SEVERE EQUIL TOTAL  TOTAL      STEP       INC OF       DOF    IF
               DISCON ITERS ITERS  TIME/    TIME/LPF    TIME/LPF    MONITOR RIKS
               ITERS               FREQ
   1     1   1     0     1     1  360.       360.       360.0     
   1     2   1     0     1     1  720.       720.       360.0     
   1     3   1     0     1     1  1.08e+03   1.08e+03   360.0     
   1     4   1     0     1     1  1.44e+03   1.44e+03   360.0     
   1     5   1     0     1     1  1.80e+03   1.80e+03   360.0     
   2     1   1     0     2     2  1.81e+03   5.14       5.140     
   2     2   1     0     1     1  1.81e+03   10.3       5.140     
   2     3   1     0     1     1  1.82e+03   15.4       5.140     
   2     4   1     0     1     1  1.82e+03   20.6       5.140     
   2     5   1     0     1     1  1.83e+03   25.7       5.140     
   2     6   1     0     1     1  1.83e+03   30.8       5.140     
   2     7   1     0     1     1  1.84e+03   36.0       5.140     
   2     8   1     0     1     1  1.84e+03   41.1       5.140     
   2     9   1     0     1     1  1.85e+03   46.3       5.140     
   2    10   1     0     1     1  1.85e+03   51.4       5.140     
   2    11   1     0     1     1  1.86e+03   56.5       5.140     
   2    12   1     0     1     1  1.86e+03   61.7       5.140     
   2    13   1     0     1     1  1.87e+03   66.8       5.140     
   2    14   1     0     1     1  1.87e+03   72.0       5.140     
   2    15   1     0     1     1  1.88e+03   77.1       5.140     
   2    16   1     0     1     1  1.88e+03   82.2       5.140     
   2    17   1     0     1     1  1.89e+03   87.4       5.140     
   2    18   1     0     1     1  1.89e+03   92.5       5.140     
   2    19   1     0     1     1  1.90e+03   97.7       5.140     
   2    20   1     0     1     1  1.90e+03   103.       5.140     
   2    21   1     0     1     1  1.91e+03   108.       5.140     
   2    22   1     0     1     1  1.91e+03   113.       5.140     
   2    23   1     0     1     1  1.92e+03   118.       5.140     
   2    24   1     0     1     1  1.92e+03   123.       5.140     
   2    25   1     0     2     2  1.93e+03   128.       5.140     
   2    26   1     0     2     2  1.93e+03   134.       5.140     
   2    27   1     0     2     2  1.94e+03   139.       5.140     
   2    28   1     0     2     2  1.94e+03   144.       5.140     
   2    29   1     0     2     2  1.95e+03   149.       5.140     
   2    30   1     0     2     2  1.95e+03   154.       5.140     
   2    31   1     0     2     2  1.96e+03   159.       5.140     
   2    32   1     0     2     2  1.96e+03   164.       5.140     
   2    33   1     0     2     2  1.97e+03   170.       5.140     
   2    34   1     0     2     2  1.97e+03   175.       5.140     
   2    35   1     0     2     2  1.98e+03   180.       5.140     
   2    36   1     0     2     2  1.99e+03   185.       5.140     
   2    37   1     0     2     2  1.99e+03   190.       5.140     
   2    38   1     0     2     2  2.00e+03   195.       5.140     
   2    39   1     0     2     2  2.00e+03   200.       5.140     
   2    40   1     0     2     2  2.01e+03   206.       5.140     
   2    41   1     0     2     2  2.01e+03   211.       5.140     
   2    42   1     0     2     2  2.02e+03   216.       5.140     
   2    43   1     0     2     2  2.02e+03   221.       5.140     
   2    44   1     0     2     2  2.03e+03   226.       5.140     
   2    45   1     0     2     2  2.03e+03   231.       5.140     
   2    46   1     0     2     2  2.04e+03   236.       5.140     
   2    47   1     0     2     2  2.04e+03   242.       5.140     
   2    48   1     0     2     2  2.05e+03   247.       5.140     
   2    49   1     0     2     2  2.05e+03   252.       5.140     
   2    50   1     0     2     2  2.06e+03   257.       5.140     
   2    51   1     0     2     2  2.06e+03   262.       5.140     
   2    52   1     0     2     2  2.07e+03   267.       5.140     
   2    53   1     0     2     2  2.07e+03   272.       5.140     
   2    54   1     0     3     3  2.08e+03   278.       5.140     
   2    55   1     0     3     3  2.08e+03   283.       5.140     
   2    56   1     0     3     3  2.09e+03   288.       5.140     
   2    57   1     0     2     2  2.09e+03   293.       5.140     
   2    58   1     0     2     2  2.10e+03   298.       5.140     
   2    59   1     0     3     3  2.10e+03   303.       5.140     
   2    60   1     0     3     3  2.11e+03   308.       5.140     
   2    61   1     0     2     2  2.11e+03   314.       5.140     
   2    62   1     0     2     2  2.12e+03   319.       5.140     
   2    63   1     0     2     2  2.12e+03   324.       5.140     
   2    64   1     0     2     2  2.13e+03   329.       5.140     
   2    65   1     0     2     2  2.13e+03   334.       5.140     
   2    66   1     0     2     2  2.14e+03   339.       5.140     
   2    67   1     0     2     2  2.14e+03   344.       5.140     
   2    68   1     0     2     2  2.15e+03   350.       5.140     
   2    69   1     0     2     2  2.15e+03   355.       5.140     
   2    70   1     0     2     2  2.16e+03   360.       5.140     
   2    71   1     0     1     1  2.16e+03   360.       0.2000    
   2    72   1     0     2     2  2.16e+03   365.       4.940     
   2    73   1     0     2     2  2.17e+03   370.       5.140     
   2    74   1     0     2     2  2.18e+03   375.       5.140     
   2    75   1     0     2     2  2.18e+03   380.       5.140     
   2    76   1     0     2     2  2.19e+03   385.       5.140     
   2    77   1     0     2     2  2.19e+03   391.       5.140     
   2    78   1     0     2     2  2.20e+03   396.       5.140     
   2    79   1     0     1     1  2.20e+03   398.       2.220     
   2    80   1     0     1     1  2.20e+03   401.       2.920     
   2    81   1     0     2     2  2.21e+03   406.       5.140     
   2    82   1     0     2     2  2.21e+03   409.       2.940     
   2    83   1     0     1     1  2.21e+03   411.       2.200     
   2    84   1     0     2     2  2.22e+03   416.       5.140     
   2    85   1     0     2     2  2.22e+03   421.       5.140     
   2    86   1     0     1     1  2.23e+03   427.       5.140     
   2    87   1     0     3     3  2.23e+03   432.       5.140     
   2    88   1     0     4     4  2.24e+03   437.       5.140     
   2    89   1     0     5     5  2.24e+03   442.       5.140     
   2    90   1     0     5     5  2.25e+03   447.       5.140     
   2    91   1     0     5     5  2.25e+03   452.       5.140     
   2    92   1     0     5     5  2.26e+03   457.       5.140     
   2    93   1     0     4     4  2.26e+03   463.       5.140     
   2    94   1     0     4     4  2.27e+03   468.       5.140     
   2    95   1     0     4     4  2.27e+03   473.       5.140     
   2    96   1     0     4     4  2.28e+03   478.       5.140     
   2    97   1     0     4     4  2.28e+03   483.       5.140     
   2    98   1     0     4     4  2.29e+03   488.       5.140     
   2    99   1     0     4     4  2.29e+03   493.       5.140     
   2   100   1     0     5     5  2.30e+03   499.       5.140     
   2   101   1     0     5     5  2.30e+03   504.       5.140     
   2   102   1     0     5     5  2.31e+03   509.       5.140     
   2   103   1     0     5     5  2.31e+03   514.       5.140     
                          
 THE ANALYSIS HAS COMPLETED SUCCESSFULLY
