*Heading
*Preprint, echo=NO, model=NO, history=NO, contact=NO
**
** PARTS
**
*Part, name=inner
*Node, nset=inner
      1,  -6.09921885,   7.92461538
      2,    -7.349473,   9.54922771
      3,  -11.9842319,   1.25725269
      4,  -9.94541454,   1.04342234
      5,   7.85372353,   6.19023609
      6,   9.46388245,   7.45905018
      7,  -8.72051048,  -8.31596088
      8,  -7.23708487,   -6.9010582
      9,          10.,           0.
     10,   12.0500002,           0.
     11,   -1.1561166,  -11.9944105
     12, -0.959295928,  -9.95388126
     13,  -6.41102839,   8.33246994
     14,  -6.72072458,   8.73281479
     15,  -7.03173065,   9.13782978
     16,  -7.77328968,   9.20752239
     17,  -8.18011284,   8.84806442
     18,  -8.56996727,   8.47101879
     19,  -8.94234467,   8.07694054
     20,  -9.29657936,   7.66655779
** ... 660 like lines cut
*Element, type=CPE4, elset=inner
  1,   1,  13, 291,  52
  2,  13,  14, 292, 291
  3,  14,  15, 293, 292
  4,  15,   2,  16, 293
  5,  52, 291, 294,  51
  6, 291, 292, 295, 294
  7, 292, 293, 296, 295
  8, 293,  16,  17, 296
  9,  51, 294, 297,  50
 10, 294, 295, 298, 297
 11, 295, 296, 299, 298
 12, 296,  17,  18, 299
 13,  50, 297, 300,  49
 14, 297, 298, 301, 300
 15, 298, 299, 302, 301
 16, 299,  18,  19, 302
 17,  49, 300, 303,  48
 18, 300, 301, 304, 303
 19, 301, 302, 305, 304
 20, 302,  19,  20, 305
** ... 524 like lines cut
*Solid Section, elset=inner, material=Material-1
1.,
*End Part
**  
*Part, name=outer
*Node, nset=outer
      1,           0.,          14.
      2,           0.,          12.
      3,          12.,           0.
      4,          14.,           0.
      5,         -14.,           0.
      6,         -12.,           0.
      7,           0.,         -12.
      8,           0.,         -14.
      9,           0.,   13.3220549
     10,  -1.60445801e-09,   12.6618252
     11,  0.697737873,   11.9796982
     12,   1.39311504,   11.9188604
     13,    2.0837779,   11.8176928
     14,   2.76739049,   11.6765385
     15,   3.44163823,   11.4958744
     16,   4.10424137,   11.2763119
     17,   4.75295687,   11.0185938
     18,   5.38559008,   10.7235918
     19,           6.,   10.3923054
     20,    6.5941081,   10.0258541
** ... 412 like lines cut
*Element, type=CPE4, elset=outer
  1,   1,   9, 225,  64
  2,   9,  10, 226, 225
  3,  10,   2,  11, 226
  4,  64, 225, 227,  63
  5, 225, 226, 228, 227
  6, 226,  11,  12, 228
  7,  63, 227, 229,  62
  8, 227, 228, 230, 229
  9, 228,  12,  13, 230
 10,  62, 229, 231,  61
 11, 229, 230, 232, 231
 12, 230,  13,  14, 232
 13,  61, 231, 233,  60
 14, 231, 232, 234, 233
 15, 232,  14,  15, 234
 16,  60, 233, 235,  59
 17, 233, 234, 236, 235
 18, 234,  15,  16, 236
 19,  59, 235, 237,  58
 20, 235, 236, 238, 237
** ... 304 like lines cut
*Solid Section, elset=outer, material=Material-1
1.,
*End Part
**  
**
** ASSEMBLY
**
*Assembly, name=Assembly
**  
*Instance, name=inner-1, part=inner
*End Instance
**  
*Instance, name=outer-1, part=outer
*End Instance
**  
*Node
      1,           0.,           0.,           0.
*Nset, nset=fix-y, instance=outer-1
 4, 5
*Nset, nset=fix-x, instance=outer-1
 1,
*Nset, nset=refPt
 1,
*Elset, elset=_rot_inner_S4, internal, instance=inner-1
   1,   5,   9,  13,  17,  21,  25,  29,  33,  37,  41,  45,  49,  53,  57,  61
  65,  69,  73,  77,  81,  85,  89,  93,  97, 101, 105, 109, 113, 117, 121, 125
 129, 133, 137, 141, 145, 149, 153, 157, 161, 165, 169, 173, 177, 181, 185, 189
 193, 197, 201, 205, 401, 405, 409, 413, 417, 421, 425, 429, 433, 437, 441, 445
 449, 453, 457, 461, 465, 469, 473, 477, 481, 485, 489, 493, 497, 501, 505, 509
 513, 517, 521, 525, 529, 533, 537, 541
*Elset, elset=_rot_inner_S2, internal, instance=inner-1, generate
 212,  400,    4
*Surface, type=ELEMENT, name=rot_inner
_rot_inner_S4, S4
_rot_inner_S2, S2
*Elset, elset=_cp-outer_S2, internal, instance=outer-1, generate
   3,  162,    3
*Elset, elset=_cp-outer_S4, internal, instance=outer-1, generate
 163,  322,    3
*Surface, type=ELEMENT, name=cp-outer
_cp-outer_S2, S2
_cp-outer_S4, S4
*Elset, elset=_cp-inner_S2, internal, instance=inner-1
   4,   8,  12,  16,  20,  24,  28,  32,  36,  40,  44,  48,  52,  56,  60,  64
  68,  72,  76,  80,  84,  88,  92,  96, 100, 104, 108, 112, 116, 120, 124, 128
 132, 136, 140, 144, 148, 152, 156, 160, 164, 168, 172, 176, 180, 184, 188, 192
 196, 200, 204, 208, 404, 408, 412, 416, 420, 424, 428, 432, 436, 440, 444, 448
 452, 456, 460, 464, 468, 472, 476, 480, 484, 488, 492, 496, 500, 504, 508, 512
 516, 520, 524, 528, 532, 536, 540, 544
*Elset, elset=_cp-inner_S4, internal, instance=inner-1, generate
 209,  397,    4
*Surface, type=ELEMENT, name=cp-inner
_cp-inner_S2, S2
_cp-inner_S4, S4
** Constraint: Constraint-1
*Coupling, constraint name=Constraint-1, ref node=refPt, surface=rot_inner
*Distributing, weighting method=UNIFORM
*End Assembly
** 
** MATERIALS
** 
*Material, name=Material-1
*Elastic
 1e+06, 0.3
** 
** INTERACTION PROPERTIES
** 
** 
** BOUNDARY CONDITIONS
** 
** 
** INTERACTIONS
** 
** ----------------------------------------------------------------
** 
** STEP: Step-1
** 
** ----------------------------------------------------------------
** 
** STEP: Step-2
** 
