 Abaqus/Standard 2023.HF4                  DATE 22-Sep-2024 TIME 19:35:10
 SUMMARY OF JOB INFORMATION:
 STEP  INC ATT SEVERE EQUIL TOTAL  TOTAL      STEP       INC OF       DOF    IF
               DISCON ITERS ITERS  TIME/    TIME/LPF    TIME/LPF    MONITOR RIKS
               ITERS               FREQ
   1     1   1     0     1     1  720.       720.       720.0     
   1     2   1     0     1     1  1.44e+03   1.44e+03   720.0     
   1     3   1     0     1     1  2.16e+03   2.16e+03   720.0     
   1     4   1     0     1     1  2.88e+03   2.88e+03   720.0     
   1     5   1     0     1     1  3.60e+03   3.60e+03   720.0     
   1     6   1     0     1     1  4.32e+03   4.32e+03   720.0     
   1     7   1     0     1     1  5.04e+03   5.04e+03   720.0     
   1     8   1     0     1     1  5.76e+03   5.76e+03   720.0     
   1     9   1     0     1     1  6.48e+03   6.48e+03   720.0     
   1    10   1     0     1     1  7.20e+03   7.20e+03   720.0     
   2     1   1     0     1     1  7.21e+03   8.59       8.590     
   2     2   1     0     1     1  7.22e+03   17.2       8.590     
   2     3   1     0     1     1  7.23e+03   25.8       8.590     
   2     4   1     0     1     1  7.23e+03   34.4       8.590     
   2     5   1     0     1     1  7.24e+03   43.0       8.590     
   2     6   1     0     1     1  7.25e+03   51.5       8.590     
   2     7   1     0     1     1  7.26e+03   60.1       8.590     
   2     8   1     0     1     1  7.27e+03   68.7       8.590     
   2     9   1     0     1     1  7.28e+03   77.3       8.590     
   2    10   1     0     1     1  7.29e+03   85.9       8.590     
   2    11   1     0     1     1  7.29e+03   94.5       8.590     
   2    12   1     0     1     1  7.30e+03   103.       8.590     
   2    13   1     0     1     1  7.31e+03   112.       8.590     
   2    14   1     0     1     1  7.32e+03   120.       8.590     
   2    15   1     0     1     1  7.33e+03   129.       8.590     
   2    16   1     0     2     2  7.34e+03   137.       8.590     
   2    17   1     0     1     1  7.35e+03   146.       8.590     
   2    18   1     0     1     1  7.35e+03   155.       8.590     
   2    19   1     0     2     2  7.36e+03   163.       8.590     
   2    20   1     0     2     2  7.37e+03   172.       8.590     
   2    21   1     0     2     2  7.38e+03   180.       8.590     
   2    22   1     0     2     2  7.39e+03   189.       8.590     
   2    23   1     0     2     2  7.40e+03   198.       8.590     
   2    24   1     0     2     2  7.41e+03   206.       8.590     
   2    25   1     0     2     2  7.41e+03   215.       8.590     
   2    26   1     0     2     2  7.42e+03   223.       8.590     
   2    27   1     0     2     2  7.43e+03   232.       8.590     
   2    28   1     0     2     2  7.44e+03   241.       8.590     
   2    29   1     0     2     2  7.45e+03   249.       8.590     
   2    30   1     0     2     2  7.46e+03   258.       8.590     
   2    31   1     0     2     2  7.47e+03   266.       8.590     
   2    32   1     0     2     2  7.47e+03   275.       8.590     
   2    33   1     0     2     2  7.48e+03   283.       8.590     
   2    34   1     0     2     2  7.49e+03   292.       8.590     
   2    35   1     0     2     2  7.50e+03   301.       8.590     
   2    36   1     0     3     3  7.51e+03   309.       8.590     
   2    37   1     0     3     3  7.52e+03   318.       8.590     
   2    38   1     0     4     4  7.53e+03   326.       8.590     
   2    39   1     0     4     4  7.54e+03   335.       8.590     
   2    40   1     0     3     3  7.54e+03   344.       8.590     
   2    41   1     0     3     3  7.55e+03   352.       8.590     
   2    42   1     0     3     3  7.56e+03   361.       8.590     
   2    43   1     0     3     3  7.57e+03   369.       8.590     
   2    44   1     0     2     2  7.58e+03   378.       8.590     
   2    45   1     0     2     2  7.59e+03   387.       8.590     
   2    46   1     0     2     2  7.60e+03   395.       8.590     
   2    47   1     0     2     2  7.60e+03   404.       8.590     
   2    48   1     0     3     3  7.61e+03   412.       8.590     
   2    49   1     0     4     4  7.62e+03   421.       8.590     
   2    50   1     0     3     3  7.63e+03   429.       8.590     
   2    51   1     0     2     2  7.64e+03   438.       8.590     
   2    52   1     0     2     2  7.65e+03   447.       8.590     
   2    53   1     0     2     2  7.66e+03   455.       8.590     
   2    54   1     0     2     2  7.66e+03   464.       8.590     
   2    55   1     0     3     3  7.67e+03   472.       8.590     
   2    56   1     0     1     1  7.68e+03   481.       8.590     
   2    57   1     0     1     1  7.69e+03   490.       8.590     
   2    58   1     0     2     2  7.70e+03   498.       8.590     
   2    59   1     0     1     1  7.71e+03   507.       8.590     
   2    60   1     0     2     2  7.72e+03   515.       8.590     
   2    61   1     0     2     2  7.72e+03   524.       8.590     
   2    62   1     0     2     2  7.73e+03   533.       8.590     
   2    63   1     0     2     2  7.74e+03   541.       8.590     
   2    64   1     0     2     2  7.75e+03   550.       8.590     
   2    65   1     0     2     2  7.76e+03   558.       8.590     
   2    66   1     0     2     2  7.77e+03   567.       8.590     
   2    67   1     0     3     3  7.78e+03   576.       8.590     
   2    68   1     0     3     3  7.78e+03   584.       8.590     
   2    69   1U    0     4     4  7.78e+03   584.       8.590     
   2    69   2U    0     4     4  7.78e+03   584.       2.147     
   2    69   3     0     5     5  7.78e+03   585.       0.5369    
   2    70   1     0     6     6  7.79e+03   585.       0.5369    
   2    71   1     0     4     4  7.79e+03   586.       0.5369    
   2    72   1     0     3     3  7.79e+03   586.       0.5369    
   2    73   1     0     3     3  7.79e+03   587.       0.8053    
   2    74   1     0     3     3  7.79e+03   588.       1.208     
   2    75   1     0     2     2  7.79e+03   590.       1.812     
   2    76   1     0     2     2  7.79e+03   593.       2.617     
   2    77   1     0     2     2  7.80e+03   597.       3.926     
   2    78   1     0     2     2  7.80e+03   601.       4.664     
   2    79   1     0     2     2  7.81e+03   610.       8.590     
   2    80   1     0     2     2  7.82e+03   618.       8.590     
   2    81   1     0     2     2  7.83e+03   627.       8.590     
   2    82   1     0     2     2  7.84e+03   636.       8.590     
   2    83   1     0     2     2  7.84e+03   644.       8.590     
   2    84   1     0     2     2  7.85e+03   653.       8.590     
   2    85   1     0     2     2  7.86e+03   661.       8.590     
   2    86   1     0     2     2  7.87e+03   670.       8.590     
   2    87   1     0     2     2  7.88e+03   679.       8.590     
   2    88   1     0     3     3  7.89e+03   687.       8.590     
   2    89   1     0     3     3  7.90e+03   696.       8.590     
   2    90   1     0     3     3  7.90e+03   704.       8.590     
   2    91   1     0     3     3  7.91e+03   713.       8.590     
   2    92   1     0     3     3  7.92e+03   722.       8.590     
   2    93   1     0     4     4  7.93e+03   730.       8.590     
   2    94   1     0     4     4  7.94e+03   739.       8.590     
   2    95   1     0     4     4  7.95e+03   747.       8.590     
   2    96   1     0     4     4  7.96e+03   756.       8.590     
   2    97   1     0     5     5  7.96e+03   765.       8.590     
   2    98   1     0     4     4  7.97e+03   773.       8.590     
   2    99   1     0     5     5  7.98e+03   782.       8.590     
   2   100   1     0     5     5  7.99e+03   790.       8.590     
   2   101   1     0     5     5  8.00e+03   799.       8.590     
   2   102   1     0     5     5  8.01e+03   807.       8.590     
   2   103   1     0     5     5  8.02e+03   816.       8.590     
   2   104   1     0     5     5  8.02e+03   825.       8.590     
   2   105   1     0     5     5  8.03e+03   833.       8.590     
   2   106   1     0     5     5  8.04e+03   842.       8.590     
   2   107   1     0     6     6  8.05e+03   850.       8.590     
   2   108   1     0     6     6  8.06e+03   859.       8.590     
                          
 THE ANALYSIS HAS COMPLETED SUCCESSFULLY
