1

   Abaqus 2023.HF4                                  Date 22-Sep-2024   Time 19:35:02
   For use by AALTO UNIVERSITY under license from Dassault Systemes or its subsidiary.

                                                                                 
                                                                                 
 STEP    1     INCREMENT     1     STEP TIME    0.00    


                        S T E P       1     C O U P L E D - T E M P E R A T U R E - D I S P L A C E M E N T   A N A L Y S I S


                                                                                          

          FIXED TIME INCREMENTS
          TIME INCREMENT IS                                     720.    
          TIME PERIOD IS                                       7.200E+03

          CREEP AND SWELLING EFFECTS ARE OMITTED IN THIS STEP
          THE RATE DEPENDENCY WILL BE CONSIDERED IN THIS STEP

          CREEP AND SWELLING EFFECTS WILL BE IGNORED.

 CONVERGENCE TOLERANCE PARAMETERS FOR FORCE    
     CRITERION FOR RESIDUAL FORCE     FOR A NONLINEAR PROBLEM          5.000E-03
     CRITERION FOR DISP.    CORRECTION IN A NONLINEAR PROBLEM          1.000E-02
     INITIAL VALUE OF TIME AVERAGE FORCE                               1.000E-02
     AVERAGE FORCE     IS TIME AVERAGE FORCE    
     ALTERNATE CRIT. FOR RESIDUAL FORCE     FOR A NONLINEAR PROBLEM    2.000E-02
     CRITERION FOR ZERO FORCE     RELATIVE TO TIME AVRG. FORCE         1.000E-05
     CRITERION FOR RESIDUAL FORCE     WHEN THERE IS ZERO FLUX          1.000E-05
     CRITERION FOR DISP.    CORRECTION WHEN THERE IS ZERO FLUX         1.000E-03
     CRITERION FOR RESIDUAL FORCE     FOR A LINEAR INCREMENT           1.000E-08
     FIELD CONVERSION RATIO                                             1.00    
     CRITERION FOR ZERO FORCE     REL. TO TIME AVRG. MAX. FORCE        1.000E-05
     CRITERION FOR ZERO DISP.    RELATIVE TO CHARACTERISTIC LENGTH     1.000E-08

 CONVERGENCE TOLERANCE PARAMETERS FOR HEAT FLUX
     CRITERION FOR RESIDUAL HEAT FLUX FOR A NONLINEAR PROBLEM          5.000E-03
     CRITERION FOR TEMP.    CORRECTION IN A NONLINEAR PROBLEM          1.000E-02
     INITIAL VALUE OF TIME AVERAGE HEAT FLUX                           1.000E-02
     AVERAGE HEAT FLUX IS TIME AVERAGE HEAT FLUX
     ALTERNATE CRIT. FOR RESIDUAL HEAT FLUX FOR A NONLINEAR PROBLEM    2.000E-02
     CRITERION FOR ZERO HEAT FLUX RELATIVE TO TIME AVRG. HEAT FLUX     1.000E-05
     CRITERION FOR RESIDUAL HEAT FLUX WHEN THERE IS ZERO FLUX          1.000E-05
     CRITERION FOR TEMP.    CORRECTION WHEN THERE IS ZERO FLUX         1.000E-03
     CRITERION FOR RESIDUAL HEAT FLUX FOR A LINEAR INCREMENT           1.000E-08
     FIELD CONVERSION RATIO                                             1.00    
     CRITERION FOR ZERO HEAT FLUX REL. TO TIME AVRG. MAX. HEAT FLUX    1.000E-05

     VOLUMETRIC STRAIN COMPATIBILITY TOLERANCE FOR HYBRID SOLIDS       1.000E-05
     AXIAL STRAIN COMPATIBILITY TOLERANCE FOR HYBRID BEAMS             1.000E-05
     TRANS. SHEAR STRAIN COMPATIBILITY TOLERANCE FOR HYBRID BEAMS      1.000E-05
     SOFT CONTACT CONSTRAINT COMPATIBILITY TOLERANCE FOR P>P0          5.000E-03
     SOFT CONTACT CONSTRAINT COMPATIBILITY TOLERANCE FOR P=0.0         0.100    
     CONTACT FORCE ERROR TOLERANCE FOR CONVERT SDI=YES                 1.00    
     DISPLACEMENT COMPATIBILITY TOLERANCE FOR DCOUP ELEMENTS           1.000E-05
     ROTATION COMPATIBILITY TOLERANCE FOR DCOUP ELEMENTS               1.000E-05

 EQUILIBRIUM WILL BE CHECKED FOR SEVERE DISCONTINUITY ITERATIONS

 ITERATION CONTROL PARAMETERS:
     FIRST EQUILIBRIUM ITERATION FOR CONSECUTIVE DIVERGENCE CHECK              4
     EQUILIBRIUM ITERATION AFTER WHICH ALTERNATE RESIDUAL IS USED              9
     MAXIMUM EQUILIBRIUM ITERATIONS ALLOWED                                   16
     MAXIMUM ITERATIONS FOR SEVERE DISCONTINUITIES                            12
     GLOBAL STABILIZATION CONTROL IS NOT USED

          PRINT OF INCREMENT NUMBER, TIME, ETC., EVERY    1  INCREMENTS

     THE MAXIMUM NUMBER OF INCREMENTS IN THIS STEP IS                 1000000

          LARGE DISPLACEMENT THEORY WILL BE USED

          UNSYMMETRIC MATRIX STORAGE AND SOLUTION WILL BE USED

     LINEAR EXTRAPOLATION WILL BE USED

     CHARACTERISTIC ELEMENT LENGTH     1.919E-04

     DETAILS REGARDING ACTUAL SOLUTION WAVEFRONT REQUESTED

     DETAILED OUTPUT OF DIAGNOSTICS TO DATABASE REQUESTED

     PRINT OF INCREMENT NUMBER, TIME, ETC., TO THE MESSAGE FILE EVERY     1  INCREMENTS

     ELEMENT OPERATIONS WILL BE CARRIED OUT IN PARALLEL USING   8 THREADS ON 1 DOMAIN

     PARALLEL CONTACT TRACKING ENABLED


     COLLECTING MODEL CONSTRAINT INFORMATION FOR OVERCONSTRAINT CHECKS

     COLLECTING STEP CONSTRAINT INFORMATION FOR OVERCONSTRAINT CHECKS


  INCREMENT     1 STARTS. ATTEMPT NUMBER  1, TIME INCREMENT   720.    
 
     INITIAL ELEMENT LOAD BALANCE
            DOMAIN    1     THREAD    NUMBER OF ELEMENTS
                              1            8664
                              2            8728
                              3            8842
                              4            8936
                              5            9064
                              6            8888
                              7            9176
                              8            8792
 
	UNSYMMETRIC NEW DIRECT SPARSE SOLVER RUNNING ON
 	1 HOST x 1 MPI RANK PER HOST x 8 THREADS PER RANK
        NUMBER OF EQUATIONS:  221425
        NUMBER OF RHS:        1
        NUMBER OF FLOPS:      4.810e+11
        SOLVER ELAPSED TIME:  3.8s

               CONVERGENCE CHECKS FOR EQUILIBRIUM ITERATION     1


 AVERAGE FORCE                       0.00       TIME AVG. FORCE       1.000E-02
 ALL FORCE     RESIDUALS ARE ZERO
 ALL DISP.    INCREMENTS ARE ZERO
 ALL CORRECTION TO DISP.    ARE ZERO
          THERE IS ZERO FORCE     EVERYWHERE

 AVERAGE HEAT FLUX                   0.00       TIME AVG. HEAT FLUX   1.000E-02
 ALL HEAT FLUX RESIDUALS ARE ZERO
 ALL TEMP.    INCREMENTS ARE ZERO
 ALL CORRECTION TO TEMP.    ARE ZERO
          THERE IS ZERO HEAT FLUX EVERYWHERE

 ITERATION SUMMARY FOR THE INCREMENT:   1 TOTAL ITERATIONS, OF WHICH
   0 ARE SEVERE DISCONTINUITY ITERATIONS AND  1 ARE EQUILIBRIUM ITERATIONS.

 TIME INCREMENT COMPLETED   720.    ,  FRACTION OF STEP COMPLETED  0.100    
 STEP TIME COMPLETED        720.    ,  TOTAL TIME COMPLETED         720.    


  INCREMENT     2 STARTS. ATTEMPT NUMBER  1, TIME INCREMENT   720.    
 
	UNSYMMETRIC NEW DIRECT SPARSE SOLVER RUNNING ON
 	1 HOST x 1 MPI RANK PER HOST x 8 THREADS PER RANK
        NUMBER OF EQUATIONS:  221425
        NUMBER OF RHS:        1
        NUMBER OF FLOPS:      4.810e+11
        SOLVER ELAPSED TIME:  4.0s

               CONVERGENCE CHECKS FOR EQUILIBRIUM ITERATION     1


 AVERAGE FORCE                       0.00       TIME AVG. FORCE       1.000E-02
 ALL FORCE     RESIDUALS ARE ZERO
 ALL DISP.    INCREMENTS ARE ZERO
 ALL CORRECTION TO DISP.    ARE ZERO
          THERE IS ZERO FORCE     EVERYWHERE

 AVERAGE HEAT FLUX                   0.00       TIME AVG. HEAT FLUX   1.000E-02
 ALL HEAT FLUX RESIDUALS ARE ZERO
 ALL TEMP.    INCREMENTS ARE ZERO
 ALL CORRECTION TO TEMP.    ARE ZERO
          THERE IS ZERO HEAT FLUX EVERYWHERE

 ITERATION SUMMARY FOR THE INCREMENT:   1 TOTAL ITERATIONS, OF WHICH
   0 ARE SEVERE DISCONTINUITY ITERATIONS AND  1 ARE EQUILIBRIUM ITERATIONS.

 TIME INCREMENT COMPLETED   720.    ,  FRACTION OF STEP COMPLETED  0.200    
 STEP TIME COMPLETED       1.440E+03,  TOTAL TIME COMPLETED        1.440E+03


  INCREMENT     3 STARTS. ATTEMPT NUMBER  1, TIME INCREMENT   720.    
 
	UNSYMMETRIC NEW DIRECT SPARSE SOLVER RUNNING ON
 	1 HOST x 1 MPI RANK PER HOST x 8 THREADS PER RANK
        NUMBER OF EQUATIONS:  221425
        NUMBER OF RHS:        1
        NUMBER OF FLOPS:      4.810e+11
        SOLVER ELAPSED TIME:  4.1s

               CONVERGENCE CHECKS FOR EQUILIBRIUM ITERATION     1


 AVERAGE FORCE                       0.00       TIME AVG. FORCE       1.000E-02
 ALL FORCE     RESIDUALS ARE ZERO
 ALL DISP.    INCREMENTS ARE ZERO
 ALL CORRECTION TO DISP.    ARE ZERO
          THERE IS ZERO FORCE     EVERYWHERE

 AVERAGE HEAT FLUX                   0.00       TIME AVG. HEAT FLUX   1.000E-02
 ALL HEAT FLUX RESIDUALS ARE ZERO
 ALL TEMP.    INCREMENTS ARE ZERO
 ALL CORRECTION TO TEMP.    ARE ZERO
          THERE IS ZERO HEAT FLUX EVERYWHERE

 ITERATION SUMMARY FOR THE INCREMENT:   1 TOTAL ITERATIONS, OF WHICH
   0 ARE SEVERE DISCONTINUITY ITERATIONS AND  1 ARE EQUILIBRIUM ITERATIONS.

 TIME INCREMENT COMPLETED   720.    ,  FRACTION OF STEP COMPLETED  0.300    
 STEP TIME COMPLETED       2.160E+03,  TOTAL TIME COMPLETED        2.160E+03


  INCREMENT     4 STARTS. ATTEMPT NUMBER  1, TIME INCREMENT   720.    
 
	UNSYMMETRIC NEW DIRECT SPARSE SOLVER RUNNING ON
 	1 HOST x 1 MPI RANK PER HOST x 8 THREADS PER RANK
        NUMBER OF EQUATIONS:  221425
        NUMBER OF RHS:        1
        NUMBER OF FLOPS:      4.810e+11
        SOLVER ELAPSED TIME:  4.2s

               CONVERGENCE CHECKS FOR EQUILIBRIUM ITERATION     1


 AVERAGE FORCE                       0.00       TIME AVG. FORCE       1.000E-02
 ALL FORCE     RESIDUALS ARE ZERO
 ALL DISP.    INCREMENTS ARE ZERO
 ALL CORRECTION TO DISP.    ARE ZERO
          THERE IS ZERO FORCE     EVERYWHERE

 AVERAGE HEAT FLUX                   0.00       TIME AVG. HEAT FLUX   1.000E-02
 ALL HEAT FLUX RESIDUALS ARE ZERO
 ALL TEMP.    INCREMENTS ARE ZERO
 ALL CORRECTION TO TEMP.    ARE ZERO
          THERE IS ZERO HEAT FLUX EVERYWHERE

 ITERATION SUMMARY FOR THE INCREMENT:   1 TOTAL ITERATIONS, OF WHICH
   0 ARE SEVERE DISCONTINUITY ITERATIONS AND  1 ARE EQUILIBRIUM ITERATIONS.

 TIME INCREMENT COMPLETED   720.    ,  FRACTION OF STEP COMPLETED  0.400    
 STEP TIME COMPLETED       2.880E+03,  TOTAL TIME COMPLETED        2.880E+03


  INCREMENT     5 STARTS. ATTEMPT NUMBER  1, TIME INCREMENT   720.    
 
	UNSYMMETRIC NEW DIRECT SPARSE SOLVER RUNNING ON
 	1 HOST x 1 MPI RANK PER HOST x 8 THREADS PER RANK
        NUMBER OF EQUATIONS:  221425
        NUMBER OF RHS:        1
        NUMBER OF FLOPS:      4.810e+11
        SOLVER ELAPSED TIME:  3.9s

               CONVERGENCE CHECKS FOR EQUILIBRIUM ITERATION     1


 AVERAGE FORCE                       0.00       TIME AVG. FORCE       1.000E-02
 ALL FORCE     RESIDUALS ARE ZERO
 ALL DISP.    INCREMENTS ARE ZERO
 ALL CORRECTION TO DISP.    ARE ZERO
          THERE IS ZERO FORCE     EVERYWHERE

 AVERAGE HEAT FLUX                   0.00       TIME AVG. HEAT FLUX   1.000E-02
 ALL HEAT FLUX RESIDUALS ARE ZERO
 ALL TEMP.    INCREMENTS ARE ZERO
 ALL CORRECTION TO TEMP.    ARE ZERO
          THERE IS ZERO HEAT FLUX EVERYWHERE

 ITERATION SUMMARY FOR THE INCREMENT:   1 TOTAL ITERATIONS, OF WHICH
   0 ARE SEVERE DISCONTINUITY ITERATIONS AND  1 ARE EQUILIBRIUM ITERATIONS.

 TIME INCREMENT COMPLETED   720.    ,  FRACTION OF STEP COMPLETED  0.500    
 STEP TIME COMPLETED       3.600E+03,  TOTAL TIME COMPLETED        3.600E+03


  INCREMENT     6 STARTS. ATTEMPT NUMBER  1, TIME INCREMENT   720.    
 
	UNSYMMETRIC NEW DIRECT SPARSE SOLVER RUNNING ON
 	1 HOST x 1 MPI RANK PER HOST x 8 THREADS PER RANK
        NUMBER OF EQUATIONS:  221425
        NUMBER OF RHS:        1
        NUMBER OF FLOPS:      4.810e+11
        SOLVER ELAPSED TIME:  3.8s

               CONVERGENCE CHECKS FOR EQUILIBRIUM ITERATION     1


 AVERAGE FORCE                       0.00       TIME AVG. FORCE       1.000E-02
 ALL FORCE     RESIDUALS ARE ZERO
 ALL DISP.    INCREMENTS ARE ZERO
 ALL CORRECTION TO DISP.    ARE ZERO
          THERE IS ZERO FORCE     EVERYWHERE

 AVERAGE HEAT FLUX                   0.00       TIME AVG. HEAT FLUX   1.000E-02
 ALL HEAT FLUX RESIDUALS ARE ZERO
 ALL TEMP.    INCREMENTS ARE ZERO
 ALL CORRECTION TO TEMP.    ARE ZERO
          THERE IS ZERO HEAT FLUX EVERYWHERE

 ITERATION SUMMARY FOR THE INCREMENT:   1 TOTAL ITERATIONS, OF WHICH
   0 ARE SEVERE DISCONTINUITY ITERATIONS AND  1 ARE EQUILIBRIUM ITERATIONS.

 TIME INCREMENT COMPLETED   720.    ,  FRACTION OF STEP COMPLETED  0.600    
 STEP TIME COMPLETED       4.320E+03,  TOTAL TIME COMPLETED        4.320E+03


  INCREMENT     7 STARTS. ATTEMPT NUMBER  1, TIME INCREMENT   720.    
 
	UNSYMMETRIC NEW DIRECT SPARSE SOLVER RUNNING ON
 	1 HOST x 1 MPI RANK PER HOST x 8 THREADS PER RANK
        NUMBER OF EQUATIONS:  221425
        NUMBER OF RHS:        1
        NUMBER OF FLOPS:      4.810e+11
        SOLVER ELAPSED TIME:  3.8s

               CONVERGENCE CHECKS FOR EQUILIBRIUM ITERATION     1


 AVERAGE FORCE                       0.00       TIME AVG. FORCE       1.000E-02
 ALL FORCE     RESIDUALS ARE ZERO
 ALL DISP.    INCREMENTS ARE ZERO
 ALL CORRECTION TO DISP.    ARE ZERO
          THERE IS ZERO FORCE     EVERYWHERE

 AVERAGE HEAT FLUX                   0.00       TIME AVG. HEAT FLUX   1.000E-02
 ALL HEAT FLUX RESIDUALS ARE ZERO
 ALL TEMP.    INCREMENTS ARE ZERO
 ALL CORRECTION TO TEMP.    ARE ZERO
          THERE IS ZERO HEAT FLUX EVERYWHERE

 ITERATION SUMMARY FOR THE INCREMENT:   1 TOTAL ITERATIONS, OF WHICH
   0 ARE SEVERE DISCONTINUITY ITERATIONS AND  1 ARE EQUILIBRIUM ITERATIONS.

 TIME INCREMENT COMPLETED   720.    ,  FRACTION OF STEP COMPLETED  0.700    
 STEP TIME COMPLETED       5.040E+03,  TOTAL TIME COMPLETED        5.040E+03


  INCREMENT     8 STARTS. ATTEMPT NUMBER  1, TIME INCREMENT   720.    
 
	UNSYMMETRIC NEW DIRECT SPARSE SOLVER RUNNING ON
 	1 HOST x 1 MPI RANK PER HOST x 8 THREADS PER RANK
        NUMBER OF EQUATIONS:  221425
        NUMBER OF RHS:        1
        NUMBER OF FLOPS:      4.810e+11
        SOLVER ELAPSED TIME:  3.9s

               CONVERGENCE CHECKS FOR EQUILIBRIUM ITERATION     1


 AVERAGE FORCE                       0.00       TIME AVG. FORCE       1.000E-02
 ALL FORCE     RESIDUALS ARE ZERO
 ALL DISP.    INCREMENTS ARE ZERO
 ALL CORRECTION TO DISP.    ARE ZERO
          THERE IS ZERO FORCE     EVERYWHERE

 AVERAGE HEAT FLUX                   0.00       TIME AVG. HEAT FLUX   1.000E-02
 ALL HEAT FLUX RESIDUALS ARE ZERO
 ALL TEMP.    INCREMENTS ARE ZERO
 ALL CORRECTION TO TEMP.    ARE ZERO
          THERE IS ZERO HEAT FLUX EVERYWHERE

 ITERATION SUMMARY FOR THE INCREMENT:   1 TOTAL ITERATIONS, OF WHICH
   0 ARE SEVERE DISCONTINUITY ITERATIONS AND  1 ARE EQUILIBRIUM ITERATIONS.

 TIME INCREMENT COMPLETED   720.    ,  FRACTION OF STEP COMPLETED  0.800    
 STEP TIME COMPLETED       5.760E+03,  TOTAL TIME COMPLETED        5.760E+03


  INCREMENT     9 STARTS. ATTEMPT NUMBER  1, TIME INCREMENT   720.    
 
	UNSYMMETRIC NEW DIRECT SPARSE SOLVER RUNNING ON
 	1 HOST x 1 MPI RANK PER HOST x 8 THREADS PER RANK
        NUMBER OF EQUATIONS:  221425
        NUMBER OF RHS:        1
        NUMBER OF FLOPS:      4.810e+11
        SOLVER ELAPSED TIME:  3.8s

               CONVERGENCE CHECKS FOR EQUILIBRIUM ITERATION     1


 AVERAGE FORCE                       0.00       TIME AVG. FORCE       1.000E-02
 ALL FORCE     RESIDUALS ARE ZERO
 ALL DISP.    INCREMENTS ARE ZERO
 ALL CORRECTION TO DISP.    ARE ZERO
          THERE IS ZERO FORCE     EVERYWHERE

 AVERAGE HEAT FLUX                   0.00       TIME AVG. HEAT FLUX   1.000E-02
 ALL HEAT FLUX RESIDUALS ARE ZERO
 ALL TEMP.    INCREMENTS ARE ZERO
 ALL CORRECTION TO TEMP.    ARE ZERO
          THERE IS ZERO HEAT FLUX EVERYWHERE

 ITERATION SUMMARY FOR THE INCREMENT:   1 TOTAL ITERATIONS, OF WHICH
   0 ARE SEVERE DISCONTINUITY ITERATIONS AND  1 ARE EQUILIBRIUM ITERATIONS.

 TIME INCREMENT COMPLETED   720.    ,  FRACTION OF STEP COMPLETED  0.900    
 STEP TIME COMPLETED       6.480E+03,  TOTAL TIME COMPLETED        6.480E+03


  INCREMENT    10 STARTS. ATTEMPT NUMBER  1, TIME INCREMENT   720.    
 
	UNSYMMETRIC NEW DIRECT SPARSE SOLVER RUNNING ON
 	1 HOST x 1 MPI RANK PER HOST x 8 THREADS PER RANK
        NUMBER OF EQUATIONS:  221425
        NUMBER OF RHS:        1
        NUMBER OF FLOPS:      4.810e+11
        SOLVER ELAPSED TIME:  3.8s

               CONVERGENCE CHECKS FOR EQUILIBRIUM ITERATION     1


 AVERAGE FORCE                       0.00       TIME AVG. FORCE       1.000E-02
 ALL FORCE     RESIDUALS ARE ZERO
 ALL DISP.    INCREMENTS ARE ZERO
 ALL CORRECTION TO DISP.    ARE ZERO
          THERE IS ZERO FORCE     EVERYWHERE

 AVERAGE HEAT FLUX                   0.00       TIME AVG. HEAT FLUX   1.000E-02
 ALL HEAT FLUX RESIDUALS ARE ZERO
 ALL TEMP.    INCREMENTS ARE ZERO
 ALL CORRECTION TO TEMP.    ARE ZERO
          THERE IS ZERO HEAT FLUX EVERYWHERE

 ITERATION SUMMARY FOR THE INCREMENT:   1 TOTAL ITERATIONS, OF WHICH
   0 ARE SEVERE DISCONTINUITY ITERATIONS AND  1 ARE EQUILIBRIUM ITERATIONS.

 TIME INCREMENT COMPLETED   720.    ,  FRACTION OF STEP COMPLETED   1.00    
 STEP TIME COMPLETED       7.200E+03,  TOTAL TIME COMPLETED        7.200E+03
1

   Abaqus 2023.HF4                                  Date 22-Sep-2024   Time 19:36:10
   For use by AALTO UNIVERSITY under license from Dassault Systemes or its subsidiary.

                                                                                 
                                                                                 
 STEP    2     INCREMENT     1     STEP TIME    0.00    


                        S T E P       2     C O U P L E D - T E M P E R A T U R E - D I S P L A C E M E N T   A N A L Y S I S


                                                                                          

     AUTOMATIC TIME CONTROL WITH -
          A SUGGESTED INITIAL TIME INCREMENT OF                 8.59    
          AND A TOTAL TIME PERIOD OF                            859.    
          THE MINIMUM TIME INCREMENT ALLOWED IS                1.000E-07
          THE MAXIMUM TIME INCREMENT ALLOWED IS                 8.59    

          CREEP AND SWELLING EFFECTS ARE OMITTED IN THIS STEP

     THE SIZE OF THE TIME INCREMENT IS CONTROLLED BY -
          THE TEMPERATURE CHANGE PER INCREMENT NOT EXCEEDING           1.000E+03
          THE RATE DEPENDENCY WILL BE CONSIDERED IN THIS STEP

          CREEP AND SWELLING EFFECTS WILL BE IGNORED.

 CONVERGENCE TOLERANCE PARAMETERS FOR FORCE    
     CRITERION FOR RESIDUAL FORCE     FOR A NONLINEAR PROBLEM          5.000E-03
     CRITERION FOR DISP.    CORRECTION IN A NONLINEAR PROBLEM          1.000E-02
     INIT. VALUE OF TIME AVG. FORCE     IS TIME AVG. FORCE     IN PREVIOUS STEP
     AVERAGE FORCE     IS TIME AVERAGE FORCE    
     ALTERNATE CRIT. FOR RESIDUAL FORCE     FOR A NONLINEAR PROBLEM    2.000E-02
     CRITERION FOR ZERO FORCE     RELATIVE TO TIME AVRG. FORCE         1.000E-05
     CRITERION FOR RESIDUAL FORCE     WHEN THERE IS ZERO FLUX          1.000E-05
     CRITERION FOR DISP.    CORRECTION WHEN THERE IS ZERO FLUX         1.000E-03
     CRITERION FOR RESIDUAL FORCE     FOR A LINEAR INCREMENT           1.000E-08
     FIELD CONVERSION RATIO                                             1.00    
     CRITERION FOR ZERO FORCE     REL. TO TIME AVRG. MAX. FORCE        1.000E-05
     CRITERION FOR ZERO DISP.    RELATIVE TO CHARACTERISTIC LENGTH     1.000E-08

 CONVERGENCE TOLERANCE PARAMETERS FOR HEAT FLUX
     CRITERION FOR RESIDUAL HEAT FLUX FOR A NONLINEAR PROBLEM          5.000E-03
     CRITERION FOR TEMP.    CORRECTION IN A NONLINEAR PROBLEM          1.000E-02
     INIT. VALUE OF TIME AVG. HEAT FLUX IS TIME AVG. HEAT FLUX IN PREVIOUS STEP
     AVERAGE HEAT FLUX IS TIME AVERAGE HEAT FLUX
     ALTERNATE CRIT. FOR RESIDUAL HEAT FLUX FOR A NONLINEAR PROBLEM    2.000E-02
     CRITERION FOR ZERO HEAT FLUX RELATIVE TO TIME AVRG. HEAT FLUX     1.000E-05
     CRITERION FOR RESIDUAL HEAT FLUX WHEN THERE IS ZERO FLUX          1.000E-05
     CRITERION FOR TEMP.    CORRECTION WHEN THERE IS ZERO FLUX         1.000E-03
     CRITERION FOR RESIDUAL HEAT FLUX FOR A LINEAR INCREMENT           1.000E-08
     FIELD CONVERSION RATIO                                             1.00    
     CRITERION FOR ZERO HEAT FLUX REL. TO TIME AVRG. MAX. HEAT FLUX    1.000E-05

     VOLUMETRIC STRAIN COMPATIBILITY TOLERANCE FOR HYBRID SOLIDS       1.000E-05
     AXIAL STRAIN COMPATIBILITY TOLERANCE FOR HYBRID BEAMS             1.000E-05
     TRANS. SHEAR STRAIN COMPATIBILITY TOLERANCE FOR HYBRID BEAMS      1.000E-05
     SOFT CONTACT CONSTRAINT COMPATIBILITY TOLERANCE FOR P>P0          5.000E-03
     SOFT CONTACT CONSTRAINT COMPATIBILITY TOLERANCE FOR P=0.0         0.100    
     CONTACT FORCE ERROR TOLERANCE FOR CONVERT SDI=YES                 1.00    
     DISPLACEMENT COMPATIBILITY TOLERANCE FOR DCOUP ELEMENTS           1.000E-05
     ROTATION COMPATIBILITY TOLERANCE FOR DCOUP ELEMENTS               1.000E-05

 EQUILIBRIUM WILL BE CHECKED FOR SEVERE DISCONTINUITY ITERATIONS

 TIME INCREMENTATION CONTROL PARAMETERS:
     FIRST EQUILIBRIUM ITERATION FOR CONSECUTIVE DIVERGENCE CHECK              4
     EQUILIBRIUM ITERATION AT WHICH LOG. CONVERGENCE RATE CHECK BEGINS         8
     EQUILIBRIUM ITERATION AFTER WHICH ALTERNATE RESIDUAL IS USED              9
     MAXIMUM EQUILIBRIUM ITERATIONS ALLOWED                                   16
     EQUILIBRIUM ITERATION COUNT FOR CUT-BACK IN NEXT INCREMENT               10
     MAXIMUM EQUILIB. ITERS IN TWO INCREMENTS FOR TIME INCREMENT INCREASE      4
     MAXIMUM ITERATIONS FOR SEVERE DISCONTINUITIES                            50
     MAXIMUM ATTEMPTS ALLOWED IN AN INCREMENT                                  5
     MAXIMUM DISCON. ITERS IN TWO INCREMENTS FOR TIME INCREMENT INCREASE      50
     MAXIMUM CONTACT AUGMENTATIONS FOR *SURFACE BEHAVIOR,AUGMENTED LAGRANGE   50
     CONSECUTIVE INCS MEETING TIME INTEG. TOL. FOR TIME INC. INCREASE          3
     CUT-BACK FACTOR AFTER DIVERGENCE                                 0.2500    
     CUT-BACK FACTOR FOR TOO SLOW CONVERGENCE                         0.5000    
     CUT-BACK FACTOR AFTER TOO MANY EQUILIBRIUM ITERATIONS            0.7500    
     CUT-BACK FACTOR AFTER TOO MANY SEVERE DISCONTINUITY ITERATIONS   0.2500    
     CUT-BACK FACTOR AFTER PROBLEMS IN ELEMENT ASSEMBLY               0.2500    
     INCREASE FACTOR AFTER TWO INCREMENTS THAT CONVERGE QUICKLY        1.500    
     MAX. TIME INCREMENT INCREASE FACTOR ALLOWED                       1.500    
     MAX. TIME INCREMENT INCREASE FACTOR ALLOWED (DYNAMICS)            1.250    
     MAX. TIME INCREMENT INCREASE FACTOR ALLOWED (DIFFUSION)           2.000    
     MINIMUM TIME INCREMENT RATIO FOR EXTRAPOLATION TO OCCUR          0.1000    
     CUT-BACK FACTOR WHEN TIME INTEGRATION ACCURACY TOL. EXCEEDED     0.8500    
     MAX. RATIO OF TIME INTEG. MEASURE TO TOL. FOR TIME INC. INCREASE 0.7500    
     INCREASE FACTOR FOR TIME INCREMENT WHEN POSSIBLE                 0.8000    
     MIN. TIME INC. INCREASE FACTOR IN LINEAR TRANSIENT PROBLEMS      0.9500    
     MAX. RATIO OF TIME INCREMENT TO STABILITY LIMIT                   1.000    
     FRACTION OF STABILITY LIMIT FOR NEW TIME INCREMENT               0.9500    
     TIME INCREMENT INCREASE FACTOR BEFORE A TIME POINT                1.000    
     GLOBAL STABILIZATION CONTROL IS NOT USED

          PRINT OF INCREMENT NUMBER, TIME, ETC., EVERY    1  INCREMENTS

     THE MAXIMUM NUMBER OF INCREMENTS IN THIS STEP IS                 1000000

          LARGE DISPLACEMENT THEORY WILL BE USED

          UNSYMMETRIC MATRIX STORAGE AND SOLUTION WILL BE USED

     LINEAR EXTRAPOLATION WILL BE USED

     CHARACTERISTIC ELEMENT LENGTH     1.919E-04

     DETAILS REGARDING ACTUAL SOLUTION WAVEFRONT REQUESTED

     DETAILED OUTPUT OF DIAGNOSTICS TO DATABASE REQUESTED

     PRINT OF INCREMENT NUMBER, TIME, ETC., TO THE MESSAGE FILE EVERY     1  INCREMENTS

     ELEMENT OPERATIONS WILL BE CARRIED OUT IN PARALLEL USING   8 THREADS ON 1 DOMAIN

     COLLECTING STEP CONSTRAINT INFORMATION FOR OVERCONSTRAINT CHECKS


  INCREMENT     1 STARTS. ATTEMPT NUMBER  1, TIME INCREMENT   8.59    
 
     INITIAL ELEMENT LOAD BALANCE
            DOMAIN    1     THREAD    NUMBER OF ELEMENTS
                              1            8664
                              2            8920
                              3            8912
                              4            8930
                              5            8856
                              6            9016
                              7            8984
                              8            8808
 
	UNSYMMETRIC NEW DIRECT SPARSE SOLVER RUNNING ON
 	1 HOST x 1 MPI RANK PER HOST x 8 THREADS PER RANK
        NUMBER OF EQUATIONS:  221425
        NUMBER OF RHS:        1
        NUMBER OF FLOPS:      4.810e+11
        SOLVER ELAPSED TIME:  3.8s

               CONVERGENCE CHECKS FOR EQUILIBRIUM ITERATION     1


 AVERAGE FORCE                      4.219E-02   TIME AVG. FORCE       4.219E-02
 LARGEST SCALED RESIDUAL FORCE     -1.754E-11   AT NODE      43975   DOF  2
   INSTANCE: CHD2                                                                            
  CORRESPONDING RESIDUAL FORCE     -1.754E-11
 LARGEST INCREMENT OF DISP.         2.148E-05   AT NODE      42998   DOF  2
   INSTANCE: CHD2                                                                            
 LARGEST CORRECTION TO DISP.        2.148E-05   AT NODE      42998   DOF  2
   INSTANCE: CHD2                                                                            
          THE FORCE     EQUILIBRIUM RESPONSE WAS LINEAR IN THIS INCREMENT

 AVERAGE HEAT FLUX                   0.00       TIME AVG. HEAT FLUX   1.000E-02
 ALL HEAT FLUX RESIDUALS ARE ZERO
 ALL TEMP.    INCREMENTS ARE ZERO
 ALL CORRECTION TO TEMP.    ARE ZERO
          THERE IS ZERO HEAT FLUX EVERYWHERE

 MAXIMUM NON-PRESCRIBED INCREMENT IN TEMPERATURE IS    0.00    

 ITERATION SUMMARY FOR THE INCREMENT:   1 TOTAL ITERATIONS, OF WHICH
   0 ARE SEVERE DISCONTINUITY ITERATIONS AND  1 ARE EQUILIBRIUM ITERATIONS.

 TIME INCREMENT COMPLETED   8.59    ,  FRACTION OF STEP COMPLETED  1.000E-02
 STEP TIME COMPLETED        8.59    ,  TOTAL TIME COMPLETED        7.209E+03


  INCREMENT     2 STARTS. ATTEMPT NUMBER  1, TIME INCREMENT   8.59    
 
	UNSYMMETRIC NEW DIRECT SPARSE SOLVER RUNNING ON
 	1 HOST x 1 MPI RANK PER HOST x 8 THREADS PER RANK
        NUMBER OF EQUATIONS:  221425
        NUMBER OF RHS:        1
        NUMBER OF FLOPS:      4.810e+11
        SOLVER ELAPSED TIME:  3.8s

               CONVERGENCE CHECKS FOR EQUILIBRIUM ITERATION     1


 AVERAGE FORCE                      0.216       TIME AVG. FORCE       0.129    
 LARGEST SCALED RESIDUAL FORCE      5.549E-12   AT NODE      42693   DOF  2
   INSTANCE: CHD2                                                                            
  CORRESPONDING RESIDUAL FORCE      5.549E-12
 LARGEST INCREMENT OF DISP.         2.148E-05   AT NODE      42998   DOF  2
   INSTANCE: CHD2                                                                            
 LARGEST CORRECTION TO DISP.        2.298E-17   AT NODE      41464   DOF  1
   INSTANCE: CHD2                                                                            
          THE FORCE     EQUILIBRIUM RESPONSE WAS LINEAR IN THIS INCREMENT

 AVERAGE HEAT FLUX                  3.853E-04   TIME AVG. HEAT FLUX   3.853E-04
 LARGEST RESIDUAL HEAT FLUX        -5.578E-07   AT NODE      44113   DOF 12
   INSTANCE: CHD2                                                                            
 LARGEST INCREMENT OF TEMP.         9.213E-06   AT NODE         11   DOF 12
   INSTANCE: CHD2                                                                            
 LARGEST CORRECTION TO TEMP.        9.213E-06   AT NODE         11   DOF 12
   INSTANCE: CHD2                                                                            
 ESTIMATE OF TEMP.    CORRECTION   -2.573E-12
 HEAT FLUX EQUILIB. ACCEPTED BASED ON SMALL RESIDUAL AND ESTIMATED CORRECTION

 MAXIMUM NON-PRESCRIBED INCREMENT IN TEMPERATURE IS   9.213E-06

 ITERATION SUMMARY FOR THE INCREMENT:   1 TOTAL ITERATIONS, OF WHICH
   0 ARE SEVERE DISCONTINUITY ITERATIONS AND  1 ARE EQUILIBRIUM ITERATIONS.

 TIME INCREMENT COMPLETED   8.59    ,  FRACTION OF STEP COMPLETED  2.000E-02
 STEP TIME COMPLETED        17.2    ,  TOTAL TIME COMPLETED        7.217E+03


  INCREMENT     3 STARTS. ATTEMPT NUMBER  1, TIME INCREMENT   8.59    
 
	UNSYMMETRIC NEW DIRECT SPARSE SOLVER RUNNING ON
 	1 HOST x 1 MPI RANK PER HOST x 8 THREADS PER RANK
        NUMBER OF EQUATIONS:  221425
        NUMBER OF RHS:        1
        NUMBER OF FLOPS:      4.810e+11
        SOLVER ELAPSED TIME:  3.8s

               CONVERGENCE CHECKS FOR EQUILIBRIUM ITERATION     1


 AVERAGE FORCE                      0.324       TIME AVG. FORCE       0.194    
 LARGEST SCALED RESIDUAL FORCE     -5.238E-12   AT NODE      44032   DOF  2
   INSTANCE: CHD2                                                                            
  CORRESPONDING RESIDUAL FORCE     -5.238E-12
 LARGEST INCREMENT OF DISP.         2.148E-05   AT NODE      42998   DOF  2
   INSTANCE: CHD2                                                                            
 LARGEST CORRECTION TO DISP.        5.543E-12   AT NODE      43600   DOF  2
   INSTANCE: CHD2                                                                            
          THE FORCE     EQUILIBRIUM RESPONSE WAS LINEAR IN THIS INCREMENT

 AVERAGE HEAT FLUX                  3.124E-03   TIME AVG. HEAT FLUX   1.755E-03
 LARGEST RESIDUAL HEAT FLUX        -1.332E-06   AT NODE      44113   DOF 12
   INSTANCE: CHD2                                                                            
 LARGEST INCREMENT OF TEMP.         2.764E-05   AT NODE         11   DOF 12
   INSTANCE: CHD2                                                                            
 LARGEST CORRECTION TO TEMP.        1.843E-05   AT NODE         11   DOF 12
   INSTANCE: CHD2                                                                            
 ESTIMATE OF TEMP.    CORRECTION   -6.145E-12
 HEAT FLUX EQUILIB. ACCEPTED BASED ON SMALL RESIDUAL AND ESTIMATED CORRECTION

 MAXIMUM NON-PRESCRIBED INCREMENT IN TEMPERATURE IS   2.764E-05

 ITERATION SUMMARY FOR THE INCREMENT:   1 TOTAL ITERATIONS, OF WHICH
   0 ARE SEVERE DISCONTINUITY ITERATIONS AND  1 ARE EQUILIBRIUM ITERATIONS.

 TIME INCREMENT COMPLETED   8.59    ,  FRACTION OF STEP COMPLETED  3.000E-02
 STEP TIME COMPLETED        25.8    ,  TOTAL TIME COMPLETED        7.226E+03


  INCREMENT     4 STARTS. ATTEMPT NUMBER  1, TIME INCREMENT   8.59    
 
	UNSYMMETRIC NEW DIRECT SPARSE SOLVER RUNNING ON
 	1 HOST x 1 MPI RANK PER HOST x 8 THREADS PER RANK
        NUMBER OF EQUATIONS:  221425
        NUMBER OF RHS:        1
        NUMBER OF FLOPS:      4.810e+11
        SOLVER ELAPSED TIME:  2.4s

               CONVERGENCE CHECKS FOR EQUILIBRIUM ITERATION     1


 AVERAGE FORCE                      0.431       TIME AVG. FORCE       0.253    
 LARGEST SCALED RESIDUAL FORCE     -4.894E-12   AT NODE      42764   DOF  2
   INSTANCE: CHD2                                                                            
  CORRESPONDING RESIDUAL FORCE     -4.894E-12
 LARGEST INCREMENT OF DISP.         2.148E-05   AT NODE      42998   DOF  2
   INSTANCE: CHD2                                                                            
 LARGEST CORRECTION TO DISP.        1.848E-11   AT NODE      43600   DOF  2
   INSTANCE: CHD2                                                                            
          THE FORCE     EQUILIBRIUM RESPONSE WAS LINEAR IN THIS INCREMENT

 AVERAGE HEAT FLUX                  7.031E-03   TIME AVG. HEAT FLUX   3.513E-03
 LARGEST RESIDUAL HEAT FLUX        -1.535E-06   AT NODE      44113   DOF 12
   INSTANCE: CHD2                                                                            
 LARGEST INCREMENT OF TEMP.         4.606E-05   AT NODE         11   DOF 12
   INSTANCE: CHD2                                                                            
 LARGEST CORRECTION TO TEMP.        1.842E-05   AT NODE         11   DOF 12
   INSTANCE: CHD2                                                                            
 ESTIMATE OF TEMP.    CORRECTION   -7.082E-12
 HEAT FLUX EQUILIB. ACCEPTED BASED ON SMALL RESIDUAL AND ESTIMATED CORRECTION

 MAXIMUM NON-PRESCRIBED INCREMENT IN TEMPERATURE IS   4.606E-05

 ITERATION SUMMARY FOR THE INCREMENT:   1 TOTAL ITERATIONS, OF WHICH
   0 ARE SEVERE DISCONTINUITY ITERATIONS AND  1 ARE EQUILIBRIUM ITERATIONS.

 TIME INCREMENT COMPLETED   8.59    ,  FRACTION OF STEP COMPLETED  4.000E-02
 STEP TIME COMPLETED        34.4    ,  TOTAL TIME COMPLETED        7.234E+03


  INCREMENT     5 STARTS. ATTEMPT NUMBER  1, TIME INCREMENT   8.59    
 
	UNSYMMETRIC NEW DIRECT SPARSE SOLVER RUNNING ON
 	1 HOST x 1 MPI RANK PER HOST x 8 THREADS PER RANK
        NUMBER OF EQUATIONS:  221425
        NUMBER OF RHS:        1
        NUMBER OF FLOPS:      4.810e+11
        SOLVER ELAPSED TIME:  2.4s

               CONVERGENCE CHECKS FOR EQUILIBRIUM ITERATION     1


 AVERAGE FORCE                      0.539       TIME AVG. FORCE       0.310    
 LARGEST SCALED RESIDUAL FORCE      5.787E-12   AT NODE      42864   DOF  2
   INSTANCE: CHD2                                                                            
  CORRESPONDING RESIDUAL FORCE      5.787E-12
 LARGEST INCREMENT OF DISP.         2.148E-05   AT NODE      42998   DOF  2
   INSTANCE: CHD2                                                                            
 LARGEST CORRECTION TO DISP.        2.956E-11   AT NODE      43600   DOF  2
   INSTANCE: CHD2                                                                            
          THE FORCE     EQUILIBRIUM RESPONSE WAS LINEAR IN THIS INCREMENT

 AVERAGE HEAT FLUX                  1.250E-02   TIME AVG. HEAT FLUX   5.760E-03
 LARGEST RESIDUAL HEAT FLUX        -1.469E-06   AT NODE      44113   DOF 12
   INSTANCE: CHD2                                                                            
 LARGEST INCREMENT OF TEMP.         6.448E-05   AT NODE         11   DOF 12
   INSTANCE: CHD2                                                                            
 LARGEST CORRECTION TO TEMP.        1.842E-05   AT NODE         11   DOF 12
   INSTANCE: CHD2                                                                            
 ESTIMATE OF TEMP.    CORRECTION   -6.777E-12
 HEAT FLUX EQUILIB. ACCEPTED BASED ON SMALL RESIDUAL AND ESTIMATED CORRECTION

 MAXIMUM NON-PRESCRIBED INCREMENT IN TEMPERATURE IS   6.448E-05

 ITERATION SUMMARY FOR THE INCREMENT:   1 TOTAL ITERATIONS, OF WHICH
   0 ARE SEVERE DISCONTINUITY ITERATIONS AND  1 ARE EQUILIBRIUM ITERATIONS.

 TIME INCREMENT COMPLETED   8.59    ,  FRACTION OF STEP COMPLETED  5.000E-02
 STEP TIME COMPLETED        43.0    ,  TOTAL TIME COMPLETED        7.243E+03


  INCREMENT     6 STARTS. ATTEMPT NUMBER  1, TIME INCREMENT   8.59    
 
	UNSYMMETRIC NEW DIRECT SPARSE SOLVER RUNNING ON
 	1 HOST x 1 MPI RANK PER HOST x 8 THREADS PER RANK
        NUMBER OF EQUATIONS:  221425
        NUMBER OF RHS:        1
        NUMBER OF FLOPS:      4.810e+11
        SOLVER ELAPSED TIME:  2.4s

               CONVERGENCE CHECKS FOR EQUILIBRIUM ITERATION     1


 AVERAGE FORCE                      0.647       TIME AVG. FORCE       0.366    
 LARGEST SCALED RESIDUAL FORCE     -5.194E-12   AT NODE      42756   DOF  2
   INSTANCE: CHD2                                                                            
  CORRESPONDING RESIDUAL FORCE     -5.194E-12
 LARGEST INCREMENT OF DISP.         2.148E-05   AT NODE      42998   DOF  2
   INSTANCE: CHD2                                                                            
 LARGEST CORRECTION TO DISP.        4.064E-11   AT NODE      43600   DOF  2
   INSTANCE: CHD2                                                                            
          THE FORCE     EQUILIBRIUM RESPONSE WAS LINEAR IN THIS INCREMENT

 AVERAGE HEAT FLUX                  1.953E-02   TIME AVG. HEAT FLUX   8.515E-03
 LARGEST RESIDUAL HEAT FLUX        -1.399E-06   AT NODE      44113   DOF 12
   INSTANCE: CHD2                                                                            
 LARGEST INCREMENT OF TEMP.         8.290E-05   AT NODE         11   DOF 12
   INSTANCE: CHD2                                                                            
 LARGEST CORRECTION TO TEMP.        1.842E-05   AT NODE         11   DOF 12
   INSTANCE: CHD2                                                                            
 ESTIMATE OF TEMP.    CORRECTION   -6.453E-12
 HEAT FLUX EQUILIB. ACCEPTED BASED ON SMALL RESIDUAL AND ESTIMATED CORRECTION

 MAXIMUM NON-PRESCRIBED INCREMENT IN TEMPERATURE IS   8.290E-05

 ITERATION SUMMARY FOR THE INCREMENT:   1 TOTAL ITERATIONS, OF WHICH
   0 ARE SEVERE DISCONTINUITY ITERATIONS AND  1 ARE EQUILIBRIUM ITERATIONS.

 TIME INCREMENT COMPLETED   8.59    ,  FRACTION OF STEP COMPLETED  6.000E-02
 STEP TIME COMPLETED        51.5    ,  TOTAL TIME COMPLETED        7.252E+03


  INCREMENT     7 STARTS. ATTEMPT NUMBER  1, TIME INCREMENT   8.59    
 
	UNSYMMETRIC NEW DIRECT SPARSE SOLVER RUNNING ON
 	1 HOST x 1 MPI RANK PER HOST x 8 THREADS PER RANK
        NUMBER OF EQUATIONS:  221425
        NUMBER OF RHS:        1
        NUMBER OF FLOPS:      4.810e+11
        SOLVER ELAPSED TIME:  2.5s

               CONVERGENCE CHECKS FOR EQUILIBRIUM ITERATION     1


 AVERAGE FORCE                      0.755       TIME AVG. FORCE       0.422    
 LARGEST SCALED RESIDUAL FORCE     -5.635E-12   AT NODE      42861   DOF  2
   INSTANCE: CHD2                                                                            
  CORRESPONDING RESIDUAL FORCE     -5.635E-12
 LARGEST INCREMENT OF DISP.         2.148E-05   AT NODE      42998   DOF  2
   INSTANCE: CHD2                                                                            
 LARGEST CORRECTION TO DISP.        5.173E-11   AT NODE      43600   DOF  2
   INSTANCE: CHD2                                                                            
          THE FORCE     EQUILIBRIUM RESPONSE WAS LINEAR IN THIS INCREMENT

 AVERAGE HEAT FLUX                  2.813E-02   TIME AVG. HEAT FLUX   1.178E-02
 LARGEST RESIDUAL HEAT FLUX        -1.381E-06   AT NODE      44113   DOF 12
   INSTANCE: CHD2                                                                            
 LARGEST INCREMENT OF TEMP.         1.013E-04   AT NODE         11   DOF 12
   INSTANCE: CHD2                                                                            
 LARGEST CORRECTION TO TEMP.        1.841E-05   AT NODE         11   DOF 12
   INSTANCE: CHD2                                                                            
 ESTIMATE OF TEMP.    CORRECTION   -6.369E-12
 HEAT FLUX EQUILIB. ACCEPTED BASED ON SMALL RESIDUAL AND ESTIMATED CORRECTION

 MAXIMUM NON-PRESCRIBED INCREMENT IN TEMPERATURE IS   1.013E-04

 ITERATION SUMMARY FOR THE INCREMENT:   1 TOTAL ITERATIONS, OF WHICH
   0 ARE SEVERE DISCONTINUITY ITERATIONS AND  1 ARE EQUILIBRIUM ITERATIONS.

 TIME INCREMENT COMPLETED   8.59    ,  FRACTION OF STEP COMPLETED  7.000E-02
 STEP TIME COMPLETED        60.1    ,  TOTAL TIME COMPLETED        7.260E+03


  INCREMENT     8 STARTS. ATTEMPT NUMBER  1, TIME INCREMENT   8.59    
 
	UNSYMMETRIC NEW DIRECT SPARSE SOLVER RUNNING ON
 	1 HOST x 1 MPI RANK PER HOST x 8 THREADS PER RANK
        NUMBER OF EQUATIONS:  221425
        NUMBER OF RHS:        1
        NUMBER OF FLOPS:      4.810e+11
        SOLVER ELAPSED TIME:  2.5s

               CONVERGENCE CHECKS FOR EQUILIBRIUM ITERATION     1


 AVERAGE FORCE                      0.863       TIME AVG. FORCE       0.477    
 LARGEST SCALED RESIDUAL FORCE     -5.663E-12   AT NODE      42724   DOF  2
   INSTANCE: CHD2                                                                            
  CORRESPONDING RESIDUAL FORCE     -5.663E-12
 LARGEST INCREMENT OF DISP.         2.148E-05   AT NODE      42998   DOF  2
   INSTANCE: CHD2                                                                            
 LARGEST CORRECTION TO DISP.        6.281E-11   AT NODE      43600   DOF  2
   INSTANCE: CHD2                                                                            
          THE FORCE     EQUILIBRIUM RESPONSE WAS LINEAR IN THIS INCREMENT

 AVERAGE HEAT FLUX                  3.829E-02   TIME AVG. HEAT FLUX   1.557E-02
 LARGEST RESIDUAL HEAT FLUX        -1.386E-06   AT NODE      44113   DOF 12
   INSTANCE: CHD2                                                                            
 LARGEST INCREMENT OF TEMP.         1.197E-04   AT NODE         11   DOF 12
   INSTANCE: CHD2                                                                            
 LARGEST CORRECTION TO TEMP.        1.841E-05   AT NODE         11   DOF 12
   INSTANCE: CHD2                                                                            
 ESTIMATE OF TEMP.    CORRECTION   -6.394E-12
 HEAT FLUX EQUILIB. ACCEPTED BASED ON SMALL RESIDUAL AND ESTIMATED CORRECTION

 MAXIMUM NON-PRESCRIBED INCREMENT IN TEMPERATURE IS   1.197E-04

 ITERATION SUMMARY FOR THE INCREMENT:   1 TOTAL ITERATIONS, OF WHICH
   0 ARE SEVERE DISCONTINUITY ITERATIONS AND  1 ARE EQUILIBRIUM ITERATIONS.

 TIME INCREMENT COMPLETED   8.59    ,  FRACTION OF STEP COMPLETED  8.000E-02
 STEP TIME COMPLETED        68.7    ,  TOTAL TIME COMPLETED        7.269E+03


  INCREMENT     9 STARTS. ATTEMPT NUMBER  1, TIME INCREMENT   8.59    
 
	UNSYMMETRIC NEW DIRECT SPARSE SOLVER RUNNING ON
 	1 HOST x 1 MPI RANK PER HOST x 8 THREADS PER RANK
        NUMBER OF EQUATIONS:  221425
        NUMBER OF RHS:        1
        NUMBER OF FLOPS:      4.810e+11
        SOLVER ELAPSED TIME:  2.6s

               CONVERGENCE CHECKS FOR EQUILIBRIUM ITERATION     1


 AVERAGE FORCE                      0.970       TIME AVG. FORCE       0.532    
 LARGEST SCALED RESIDUAL FORCE      4.224E-12   AT NODE      42790   DOF  2
   INSTANCE: CHD2                                                                            
  CORRESPONDING RESIDUAL FORCE      4.224E-12
 LARGEST INCREMENT OF DISP.         2.148E-05   AT NODE      42998   DOF  2
   INSTANCE: CHD2                                                                            
 LARGEST CORRECTION TO DISP.        7.390E-11   AT NODE      43600   DOF  2
   INSTANCE: CHD2                                                                            
          THE FORCE     EQUILIBRIUM RESPONSE WAS LINEAR IN THIS INCREMENT

 AVERAGE HEAT FLUX                  5.000E-02   TIME AVG. HEAT FLUX   1.987E-02
 LARGEST RESIDUAL HEAT FLUX        -1.392E-06   AT NODE      44113   DOF 12
   INSTANCE: CHD2                                                                            
 LARGEST INCREMENT OF TEMP.         1.381E-04   AT NODE         11   DOF 12
   INSTANCE: CHD2                                                                            
 LARGEST CORRECTION TO TEMP.        1.840E-05   AT NODE         11   DOF 12
   INSTANCE: CHD2                                                                            
 ESTIMATE OF TEMP.    CORRECTION   -6.421E-12
 HEAT FLUX EQUILIB. ACCEPTED BASED ON SMALL RESIDUAL AND ESTIMATED CORRECTION

 MAXIMUM NON-PRESCRIBED INCREMENT IN TEMPERATURE IS   1.381E-04

 ITERATION SUMMARY FOR THE INCREMENT:   1 TOTAL ITERATIONS, OF WHICH
   0 ARE SEVERE DISCONTINUITY ITERATIONS AND  1 ARE EQUILIBRIUM ITERATIONS.

 TIME INCREMENT COMPLETED   8.59    ,  FRACTION OF STEP COMPLETED  9.000E-02
 STEP TIME COMPLETED        77.3    ,  TOTAL TIME COMPLETED        7.277E+03


  INCREMENT    10 STARTS. ATTEMPT NUMBER  1, TIME INCREMENT   8.59    
 
	UNSYMMETRIC NEW DIRECT SPARSE SOLVER RUNNING ON
 	1 HOST x 1 MPI RANK PER HOST x 8 THREADS PER RANK
        NUMBER OF EQUATIONS:  221425
        NUMBER OF RHS:        1
        NUMBER OF FLOPS:      4.810e+11
        SOLVER ELAPSED TIME:  3.0s

               CONVERGENCE CHECKS FOR EQUILIBRIUM ITERATION     1


 AVERAGE FORCE                       1.08       TIME AVG. FORCE       0.586    
 LARGEST SCALED RESIDUAL FORCE      5.592E-12   AT NODE      42860   DOF  2
   INSTANCE: CHD2                                                                            
  CORRESPONDING RESIDUAL FORCE      5.592E-12
 LARGEST INCREMENT OF DISP.         2.148E-05   AT NODE      42998   DOF  2
   INSTANCE: CHD2                                                                            
 LARGEST CORRECTION TO DISP.        8.498E-11   AT NODE      43600   DOF  2
   INSTANCE: CHD2                                                                            
          THE FORCE     EQUILIBRIUM RESPONSE WAS LINEAR IN THIS INCREMENT

 AVERAGE HEAT FLUX                  6.328E-02   TIME AVG. HEAT FLUX   2.470E-02
 LARGEST RESIDUAL HEAT FLUX        -1.394E-06   AT NODE      44113   DOF 12
   INSTANCE: CHD2                                                                            
 LARGEST INCREMENT OF TEMP.         1.565E-04   AT NODE         11   DOF 12
   INSTANCE: CHD2                                                                            
 LARGEST CORRECTION TO TEMP.        1.839E-05   AT NODE         11   DOF 12
   INSTANCE: CHD2                                                                            
 ESTIMATE OF TEMP.    CORRECTION   -6.427E-12
 HEAT FLUX EQUILIB. ACCEPTED BASED ON SMALL RESIDUAL AND ESTIMATED CORRECTION

 MAXIMUM NON-PRESCRIBED INCREMENT IN TEMPERATURE IS   1.565E-04

 ITERATION SUMMARY FOR THE INCREMENT:   1 TOTAL ITERATIONS, OF WHICH
   0 ARE SEVERE DISCONTINUITY ITERATIONS AND  1 ARE EQUILIBRIUM ITERATIONS.

 TIME INCREMENT COMPLETED   8.59    ,  FRACTION OF STEP COMPLETED  0.100    
 STEP TIME COMPLETED        85.9    ,  TOTAL TIME COMPLETED        7.286E+03


  INCREMENT    11 STARTS. ATTEMPT NUMBER  1, TIME INCREMENT   8.59    
 
	UNSYMMETRIC NEW DIRECT SPARSE SOLVER RUNNING ON
 	1 HOST x 1 MPI RANK PER HOST x 8 THREADS PER RANK
        NUMBER OF EQUATIONS:  221425
        NUMBER OF RHS:        1
        NUMBER OF FLOPS:      4.810e+11
        SOLVER ELAPSED TIME:  2.5s

               CONVERGENCE CHECKS FOR EQUILIBRIUM ITERATION     1


 AVERAGE FORCE                       1.19       TIME AVG. FORCE       0.641    
 LARGEST SCALED RESIDUAL FORCE     -4.697E-12   AT NODE      42860   DOF  2
   INSTANCE: CHD2                                                                            
  CORRESPONDING RESIDUAL FORCE     -4.697E-12
 LARGEST INCREMENT OF DISP.         2.148E-05   AT NODE      42998   DOF  2
   INSTANCE: CHD2                                                                            
 LARGEST CORRECTION TO DISP.        9.607E-11   AT NODE      43600   DOF  2
   INSTANCE: CHD2                                                                            
          THE FORCE     EQUILIBRIUM RESPONSE WAS LINEAR IN THIS INCREMENT

 AVERAGE HEAT FLUX                  7.812E-02   TIME AVG. HEAT FLUX   3.004E-02
 LARGEST RESIDUAL HEAT FLUX        -1.393E-06   AT NODE      44113   DOF 12
   INSTANCE: CHD2                                                                            
 LARGEST INCREMENT OF TEMP.         1.749E-04   AT NODE         11   DOF 12
   INSTANCE: CHD2                                                                            
 LARGEST CORRECTION TO TEMP.        1.838E-05   AT NODE         11   DOF 12
   INSTANCE: CHD2                                                                            
 ESTIMATE OF TEMP.    CORRECTION   -6.423E-12
 HEAT FLUX EQUILIB. ACCEPTED BASED ON SMALL RESIDUAL AND ESTIMATED CORRECTION

 MAXIMUM NON-PRESCRIBED INCREMENT IN TEMPERATURE IS   1.749E-04

 ITERATION SUMMARY FOR THE INCREMENT:   1 TOTAL ITERATIONS, OF WHICH
   0 ARE SEVERE DISCONTINUITY ITERATIONS AND  1 ARE EQUILIBRIUM ITERATIONS.

 TIME INCREMENT COMPLETED   8.59    ,  FRACTION OF STEP COMPLETED  0.110    
 STEP TIME COMPLETED        94.5    ,  TOTAL TIME COMPLETED        7.294E+03


  INCREMENT    12 STARTS. ATTEMPT NUMBER  1, TIME INCREMENT   8.59    
 
	UNSYMMETRIC NEW DIRECT SPARSE SOLVER RUNNING ON
 	1 HOST x 1 MPI RANK PER HOST x 8 THREADS PER RANK
        NUMBER OF EQUATIONS:  221425
        NUMBER OF RHS:        1
        NUMBER OF FLOPS:      4.810e+11
        SOLVER ELAPSED TIME:  2.7s

               CONVERGENCE CHECKS FOR EQUILIBRIUM ITERATION     1


 AVERAGE FORCE                       1.29       TIME AVG. FORCE       0.695    
 LARGEST SCALED RESIDUAL FORCE      5.141E-12   AT NODE      42857   DOF  2
   INSTANCE: CHD2                                                                            
  CORRESPONDING RESIDUAL FORCE      5.141E-12
 LARGEST INCREMENT OF DISP.         2.148E-05   AT NODE      42998   DOF  2
   INSTANCE: CHD2                                                                            
 LARGEST CORRECTION TO DISP.        1.072E-10   AT NODE      43600   DOF  2
   INSTANCE: CHD2                                                                            
          THE FORCE     EQUILIBRIUM RESPONSE WAS LINEAR IN THIS INCREMENT

 AVERAGE HEAT FLUX                  9.452E-02   TIME AVG. HEAT FLUX   3.590E-02
 LARGEST RESIDUAL HEAT FLUX        -1.392E-06   AT NODE      44113   DOF 12
   INSTANCE: CHD2                                                                            
 LARGEST INCREMENT OF TEMP.         1.933E-04   AT NODE         11   DOF 12
   INSTANCE: CHD2                                                                            
 LARGEST CORRECTION TO TEMP.        1.837E-05   AT NODE         11   DOF 12
   INSTANCE: CHD2                                                                            
 ESTIMATE OF TEMP.    CORRECTION   -6.417E-12
 HEAT FLUX EQUILIB. ACCEPTED BASED ON SMALL RESIDUAL AND ESTIMATED CORRECTION

 MAXIMUM NON-PRESCRIBED INCREMENT IN TEMPERATURE IS   1.933E-04

 ITERATION SUMMARY FOR THE INCREMENT:   1 TOTAL ITERATIONS, OF WHICH
   0 ARE SEVERE DISCONTINUITY ITERATIONS AND  1 ARE EQUILIBRIUM ITERATIONS.

 TIME INCREMENT COMPLETED   8.59    ,  FRACTION OF STEP COMPLETED  0.120    
 STEP TIME COMPLETED        103.    ,  TOTAL TIME COMPLETED        7.303E+03


  INCREMENT    13 STARTS. ATTEMPT NUMBER  1, TIME INCREMENT   8.59    
 
	UNSYMMETRIC NEW DIRECT SPARSE SOLVER RUNNING ON
 	1 HOST x 1 MPI RANK PER HOST x 8 THREADS PER RANK
        NUMBER OF EQUATIONS:  221425
        NUMBER OF RHS:        1
        NUMBER OF FLOPS:      4.810e+11
        SOLVER ELAPSED TIME:  2.5s

               CONVERGENCE CHECKS FOR EQUILIBRIUM ITERATION     1


 AVERAGE FORCE                       1.40       TIME AVG. FORCE       0.750    
 LARGEST SCALED RESIDUAL FORCE      4.796E-12   AT NODE      43955   DOF  2
   INSTANCE: CHD2                                                                            
  CORRESPONDING RESIDUAL FORCE      4.796E-12
 LARGEST INCREMENT OF DISP.         2.148E-05   AT NODE      42998   DOF  2
   INSTANCE: CHD2                                                                            
 LARGEST CORRECTION TO DISP.        1.182E-10   AT NODE      43600   DOF  2
   INSTANCE: CHD2                                                                            
          THE FORCE     EQUILIBRIUM RESPONSE WAS LINEAR IN THIS INCREMENT

 AVERAGE HEAT FLUX                  0.112       TIME AVG. HEAT FLUX   4.228E-02
 LARGEST RESIDUAL HEAT FLUX        -1.391E-06   AT NODE      44113   DOF 12
   INSTANCE: CHD2                                                                            
 LARGEST INCREMENT OF TEMP.         2.116E-04   AT NODE         11   DOF 12
   INSTANCE: CHD2                                                                            
 LARGEST CORRECTION TO TEMP.        1.836E-05   AT NODE         11   DOF 12
   INSTANCE: CHD2                                                                            
 ESTIMATE OF TEMP.    CORRECTION   -6.412E-12
 HEAT FLUX EQUILIB. ACCEPTED BASED ON SMALL RESIDUAL AND ESTIMATED CORRECTION

 MAXIMUM NON-PRESCRIBED INCREMENT IN TEMPERATURE IS   2.116E-04

 ITERATION SUMMARY FOR THE INCREMENT:   1 TOTAL ITERATIONS, OF WHICH
   0 ARE SEVERE DISCONTINUITY ITERATIONS AND  1 ARE EQUILIBRIUM ITERATIONS.

 TIME INCREMENT COMPLETED   8.59    ,  FRACTION OF STEP COMPLETED  0.130    
 STEP TIME COMPLETED        112.    ,  TOTAL TIME COMPLETED        7.312E+03


  INCREMENT    14 STARTS. ATTEMPT NUMBER  1, TIME INCREMENT   8.59    
 
	UNSYMMETRIC NEW DIRECT SPARSE SOLVER RUNNING ON
 	1 HOST x 1 MPI RANK PER HOST x 8 THREADS PER RANK
        NUMBER OF EQUATIONS:  221425
        NUMBER OF RHS:        1
        NUMBER OF FLOPS:      4.810e+11
        SOLVER ELAPSED TIME:  2.8s

               CONVERGENCE CHECKS FOR EQUILIBRIUM ITERATION     1


 AVERAGE FORCE                       1.51       TIME AVG. FORCE       0.804    
 LARGEST SCALED RESIDUAL FORCE     -4.746E-12   AT NODE      42804   DOF  2
   INSTANCE: CHD2                                                                            
  CORRESPONDING RESIDUAL FORCE     -4.746E-12
 LARGEST INCREMENT OF DISP.         2.148E-05   AT NODE      42998   DOF  2
   INSTANCE: CHD2                                                                            
 LARGEST CORRECTION TO DISP.        1.293E-10   AT NODE      43600   DOF  2
   INSTANCE: CHD2                                                                            
          THE FORCE     EQUILIBRIUM RESPONSE WAS LINEAR IN THIS INCREMENT

 AVERAGE HEAT FLUX                  0.132       TIME AVG. HEAT FLUX   4.918E-02
 LARGEST RESIDUAL HEAT FLUX        -1.390E-06   AT NODE      44113   DOF 12
   INSTANCE: CHD2                                                                            
 LARGEST INCREMENT OF TEMP.         2.300E-04   AT NODE         11   DOF 12
   INSTANCE: CHD2                                                                            
 LARGEST CORRECTION TO TEMP.        1.835E-05   AT NODE         11   DOF 12
   INSTANCE: CHD2                                                                            
 ESTIMATE OF TEMP.    CORRECTION   -6.408E-12
 HEAT FLUX EQUILIB. ACCEPTED BASED ON SMALL RESIDUAL AND ESTIMATED CORRECTION

 MAXIMUM NON-PRESCRIBED INCREMENT IN TEMPERATURE IS   2.300E-04

 ITERATION SUMMARY FOR THE INCREMENT:   1 TOTAL ITERATIONS, OF WHICH
   0 ARE SEVERE DISCONTINUITY ITERATIONS AND  1 ARE EQUILIBRIUM ITERATIONS.

 TIME INCREMENT COMPLETED   8.59    ,  FRACTION OF STEP COMPLETED  0.140    
 STEP TIME COMPLETED        120.    ,  TOTAL TIME COMPLETED        7.320E+03


  INCREMENT    15 STARTS. ATTEMPT NUMBER  1, TIME INCREMENT   8.59    
 
	UNSYMMETRIC NEW DIRECT SPARSE SOLVER RUNNING ON
 	1 HOST x 1 MPI RANK PER HOST x 8 THREADS PER RANK
        NUMBER OF EQUATIONS:  221425
        NUMBER OF RHS:        1
        NUMBER OF FLOPS:      4.810e+11
        SOLVER ELAPSED TIME:  2.7s

               CONVERGENCE CHECKS FOR EQUILIBRIUM ITERATION     1


 AVERAGE FORCE                       1.62       TIME AVG. FORCE       0.858    
 LARGEST SCALED RESIDUAL FORCE      5.805E-04   AT NODE      13322   DOF  2
   INSTANCE: CHD2                                                                            
  CORRESPONDING RESIDUAL FORCE      5.805E-04
 LARGEST INCREMENT OF DISP.         2.148E-05   AT NODE      42998   DOF  2
   INSTANCE: CHD2                                                                            
 LARGEST CORRECTION TO DISP.        4.621E-09   AT NODE        908   DOF  2
   INSTANCE: CHD2                                                                            
          THE FORCE     EQUILIBRIUM EQUATIONS HAVE CONVERGED

 AVERAGE HEAT FLUX                  0.153       TIME AVG. HEAT FLUX   5.660E-02
 LARGEST RESIDUAL HEAT FLUX        -1.389E-06   AT NODE      44113   DOF 12
   INSTANCE: CHD2                                                                            
 LARGEST INCREMENT OF TEMP.         2.483E-04   AT NODE         11   DOF 12
   INSTANCE: CHD2                                                                            
 LARGEST CORRECTION TO TEMP.        1.834E-05   AT NODE         11   DOF 12
   INSTANCE: CHD2                                                                            
 ESTIMATE OF TEMP.    CORRECTION   -6.404E-12
 HEAT FLUX EQUILIB. ACCEPTED BASED ON SMALL RESIDUAL AND ESTIMATED CORRECTION

 MAXIMUM NON-PRESCRIBED INCREMENT IN TEMPERATURE IS   2.483E-04

 ITERATION SUMMARY FOR THE INCREMENT:   1 TOTAL ITERATIONS, OF WHICH
   0 ARE SEVERE DISCONTINUITY ITERATIONS AND  1 ARE EQUILIBRIUM ITERATIONS.

 TIME INCREMENT COMPLETED   8.59    ,  FRACTION OF STEP COMPLETED  0.150    
 STEP TIME COMPLETED        129.    ,  TOTAL TIME COMPLETED        7.329E+03


  INCREMENT    16 STARTS. ATTEMPT NUMBER  1, TIME INCREMENT   8.59    
 
	UNSYMMETRIC NEW DIRECT SPARSE SOLVER RUNNING ON
 	1 HOST x 1 MPI RANK PER HOST x 8 THREADS PER RANK
        NUMBER OF EQUATIONS:  221425
        NUMBER OF RHS:        1
        NUMBER OF FLOPS:      4.810e+11
        SOLVER ELAPSED TIME:  2.6s

               CONVERGENCE CHECKS FOR EQUILIBRIUM ITERATION     1


 AVERAGE FORCE                       1.72       TIME AVG. FORCE       0.912    
 LARGEST SCALED RESIDUAL FORCE      1.605E-02   AT NODE      30871   DOF  2
   INSTANCE: CHD2                                                                            
  CORRESPONDING RESIDUAL FORCE      1.605E-02
 LARGEST INCREMENT OF DISP.         2.148E-05   AT NODE      42998   DOF  2
   INSTANCE: CHD2                                                                            
 LARGEST CORRECTION TO DISP.       -2.100E-08   AT NODE          1   DOF  3
   INSTANCE: CHD2                                                                            
          FORCE     EQUILIBRIUM NOT ACHIEVED WITHIN TOLERANCE.

 AVERAGE HEAT FLUX                  0.176       TIME AVG. HEAT FLUX   6.455E-02
 LARGEST RESIDUAL HEAT FLUX        -1.388E-06   AT NODE      44036   DOF 12
   INSTANCE: CHD2                                                                            
 LARGEST INCREMENT OF TEMP.         2.666E-04   AT NODE         11   DOF 12
   INSTANCE: CHD2                                                                            
 LARGEST CORRECTION TO TEMP.        1.841E-05   AT NODE        353   DOF 12
   INSTANCE: CHD2                                                                            
 ESTIMATE OF TEMP.    CORRECTION   -6.418E-12
 HEAT FLUX EQUILIB. ACCEPTED BASED ON SMALL RESIDUAL AND ESTIMATED CORRECTION
 
	UNSYMMETRIC NEW DIRECT SPARSE SOLVER RUNNING ON
 	1 HOST x 1 MPI RANK PER HOST x 8 THREADS PER RANK
        NUMBER OF EQUATIONS:  221425
        NUMBER OF RHS:        1
        NUMBER OF FLOPS:      4.810e+11
        SOLVER ELAPSED TIME:  2.5s

               CONVERGENCE CHECKS FOR EQUILIBRIUM ITERATION     2


 AVERAGE FORCE                       1.72       TIME AVG. FORCE       0.912    
 LARGEST SCALED RESIDUAL FORCE     -8.670E-05   AT NODE       7445   DOF  2
   INSTANCE: CHD2                                                                            
  CORRESPONDING RESIDUAL FORCE     -8.670E-05
 LARGEST INCREMENT OF DISP.         2.148E-05   AT NODE      42998   DOF  2
   INSTANCE: CHD2                                                                            
 LARGEST CORRECTION TO DISP.        7.644E-10   AT NODE      30871   DOF  2
   INSTANCE: CHD2                                                                            
          THE FORCE     EQUILIBRIUM EQUATIONS HAVE CONVERGED

 AVERAGE HEAT FLUX                  0.176       TIME AVG. HEAT FLUX   6.455E-02
 LARGEST RESIDUAL HEAT FLUX        -2.806E-07   AT NODE      44036   DOF 12
   INSTANCE: CHD2                                                                            
 LARGEST INCREMENT OF TEMP.         2.666E-04   AT NODE         11   DOF 12
   INSTANCE: CHD2                                                                            
 LARGEST CORRECTION TO TEMP.       -3.499E-12   AT NODE      43167   DOF 12
   INSTANCE: CHD2                                                                            
          THE HEAT FLUX EQUILIBRIUM EQUATIONS HAVE CONVERGED

 MAXIMUM NON-PRESCRIBED INCREMENT IN TEMPERATURE IS   2.666E-04

 ITERATION SUMMARY FOR THE INCREMENT:   2 TOTAL ITERATIONS, OF WHICH
   0 ARE SEVERE DISCONTINUITY ITERATIONS AND  2 ARE EQUILIBRIUM ITERATIONS.

 TIME INCREMENT COMPLETED   8.59    ,  FRACTION OF STEP COMPLETED  0.160    
 STEP TIME COMPLETED        137.    ,  TOTAL TIME COMPLETED        7.337E+03


  INCREMENT    17 STARTS. ATTEMPT NUMBER  1, TIME INCREMENT   8.59    
 
	UNSYMMETRIC NEW DIRECT SPARSE SOLVER RUNNING ON
 	1 HOST x 1 MPI RANK PER HOST x 8 THREADS PER RANK
        NUMBER OF EQUATIONS:  221425
        NUMBER OF RHS:        1
        NUMBER OF FLOPS:      4.810e+11
        SOLVER ELAPSED TIME:  2.5s

               CONVERGENCE CHECKS FOR EQUILIBRIUM ITERATION     1


 AVERAGE FORCE                       1.83       TIME AVG. FORCE       0.966    
 LARGEST SCALED RESIDUAL FORCE     -4.369E-03   AT NODE      33600   DOF  2
   INSTANCE: CHD2                                                                            
  CORRESPONDING RESIDUAL FORCE     -4.369E-03
 LARGEST INCREMENT OF DISP.         2.148E-05   AT NODE      42998   DOF  2
   INSTANCE: CHD2                                                                            
 LARGEST CORRECTION TO DISP.        1.725E-08   AT NODE      13292   DOF  2
   INSTANCE: CHD2                                                                            
          THE FORCE     EQUILIBRIUM EQUATIONS HAVE CONVERGED

 AVERAGE HEAT FLUX                  0.200       TIME AVG. HEAT FLUX   7.302E-02
 LARGEST RESIDUAL HEAT FLUX        -9.481E-07   AT NODE      44036   DOF 12
   INSTANCE: CHD2                                                                            
 LARGEST INCREMENT OF TEMP.         2.850E-04   AT NODE         11   DOF 12
   INSTANCE: CHD2                                                                            
 LARGEST CORRECTION TO TEMP.        1.934E-05   AT NODE        558   DOF 12
   INSTANCE: CHD2                                                                            
 ESTIMATE OF TEMP.    CORRECTION   -4.574E-12
 HEAT FLUX EQUILIB. ACCEPTED BASED ON SMALL RESIDUAL AND ESTIMATED CORRECTION

 MAXIMUM NON-PRESCRIBED INCREMENT IN TEMPERATURE IS   2.850E-04

 ITERATION SUMMARY FOR THE INCREMENT:   1 TOTAL ITERATIONS, OF WHICH
   0 ARE SEVERE DISCONTINUITY ITERATIONS AND  1 ARE EQUILIBRIUM ITERATIONS.

 TIME INCREMENT COMPLETED   8.59    ,  FRACTION OF STEP COMPLETED  0.170    
 STEP TIME COMPLETED        146.    ,  TOTAL TIME COMPLETED        7.346E+03


  INCREMENT    18 STARTS. ATTEMPT NUMBER  1, TIME INCREMENT   8.59    
 
	UNSYMMETRIC NEW DIRECT SPARSE SOLVER RUNNING ON
 	1 HOST x 1 MPI RANK PER HOST x 8 THREADS PER RANK
        NUMBER OF EQUATIONS:  221425
        NUMBER OF RHS:        1
        NUMBER OF FLOPS:      4.810e+11
        SOLVER ELAPSED TIME:  2.5s

               CONVERGENCE CHECKS FOR EQUILIBRIUM ITERATION     1


 AVERAGE FORCE                       1.94       TIME AVG. FORCE        1.02    
 LARGEST SCALED RESIDUAL FORCE      2.454E-03   AT NODE      24825   DOF  2
   INSTANCE: CHD2                                                                            
  CORRESPONDING RESIDUAL FORCE      2.454E-03
 LARGEST INCREMENT OF DISP.         2.148E-05   AT NODE      42998   DOF  2
   INSTANCE: CHD2                                                                            
 LARGEST CORRECTION TO DISP.        1.518E-08   AT NODE      13379   DOF  2
   INSTANCE: CHD2                                                                            
          THE FORCE     EQUILIBRIUM EQUATIONS HAVE CONVERGED

 AVERAGE HEAT FLUX                  0.226       TIME AVG. HEAT FLUX   8.204E-02
 LARGEST RESIDUAL HEAT FLUX        -1.416E-06   AT NODE      44113   DOF 12
   INSTANCE: CHD2                                                                            
 LARGEST INCREMENT OF TEMP.         3.041E-04   AT NODE         11   DOF 12
   INSTANCE: CHD2                                                                            
 LARGEST CORRECTION TO TEMP.        2.002E-05   AT NODE        592   DOF 12
   INSTANCE: CHD2                                                                            
 ESTIMATE OF TEMP.    CORRECTION   -7.030E-12
 HEAT FLUX EQUILIB. ACCEPTED BASED ON SMALL RESIDUAL AND ESTIMATED CORRECTION

 MAXIMUM NON-PRESCRIBED INCREMENT IN TEMPERATURE IS   3.041E-04

 ITERATION SUMMARY FOR THE INCREMENT:   1 TOTAL ITERATIONS, OF WHICH
   0 ARE SEVERE DISCONTINUITY ITERATIONS AND  1 ARE EQUILIBRIUM ITERATIONS.

 TIME INCREMENT COMPLETED   8.59    ,  FRACTION OF STEP COMPLETED  0.180    
 STEP TIME COMPLETED        155.    ,  TOTAL TIME COMPLETED        7.355E+03


  INCREMENT    19 STARTS. ATTEMPT NUMBER  1, TIME INCREMENT   8.59    
 
	UNSYMMETRIC NEW DIRECT SPARSE SOLVER RUNNING ON
 	1 HOST x 1 MPI RANK PER HOST x 8 THREADS PER RANK
        NUMBER OF EQUATIONS:  221425
        NUMBER OF RHS:        1
        NUMBER OF FLOPS:      4.810e+11
        SOLVER ELAPSED TIME:  2.5s

               CONVERGENCE CHECKS FOR EQUILIBRIUM ITERATION     1


 AVERAGE FORCE                       2.04       TIME AVG. FORCE        1.07    
 LARGEST SCALED RESIDUAL FORCE     -5.637E-03   AT NODE      14894   DOF  2
   INSTANCE: CHD2                                                                            
  CORRESPONDING RESIDUAL FORCE     -5.637E-03
 LARGEST INCREMENT OF DISP.         2.148E-05   AT NODE      42998   DOF  2
   INSTANCE: CHD2                                                                            
 LARGEST CORRECTION TO DISP.       -1.553E-08   AT NODE        222   DOF  3
   INSTANCE: CHD2                                                                            
          FORCE     EQUILIBRIUM NOT ACHIEVED WITHIN TOLERANCE.

 AVERAGE HEAT FLUX                  0.255       TIME AVG. HEAT FLUX   9.162E-02
 LARGEST RESIDUAL HEAT FLUX        -1.483E-06   AT NODE      44036   DOF 12
   INSTANCE: CHD2                                                                            
 LARGEST INCREMENT OF TEMP.         3.229E-04   AT NODE         11   DOF 12
   INSTANCE: CHD2                                                                            
 LARGEST CORRECTION TO TEMP.        2.000E-05   AT NODE        557   DOF 12
   INSTANCE: CHD2                                                                            
 ESTIMATE OF TEMP.    CORRECTION   -7.339E-12
 HEAT FLUX EQUILIB. ACCEPTED BASED ON SMALL RESIDUAL AND ESTIMATED CORRECTION
 
	UNSYMMETRIC NEW DIRECT SPARSE SOLVER RUNNING ON
 	1 HOST x 1 MPI RANK PER HOST x 8 THREADS PER RANK
        NUMBER OF EQUATIONS:  221425
        NUMBER OF RHS:        1
        NUMBER OF FLOPS:      4.810e+11
        SOLVER ELAPSED TIME:  2.5s

               CONVERGENCE CHECKS FOR EQUILIBRIUM ITERATION     2


 AVERAGE FORCE                       2.04       TIME AVG. FORCE        1.07    
 LARGEST SCALED RESIDUAL FORCE     -4.618E-07   AT NODE       7127   DOF  1
   INSTANCE: CHD2                                                                            
  CORRESPONDING RESIDUAL FORCE     -4.618E-07
 LARGEST INCREMENT OF DISP.         2.148E-05   AT NODE      42998   DOF  2
   INSTANCE: CHD2                                                                            
 LARGEST CORRECTION TO DISP.       -3.064E-10   AT NODE      14894   DOF  2
   INSTANCE: CHD2                                                                            
          THE FORCE     EQUILIBRIUM EQUATIONS HAVE CONVERGED

 AVERAGE HEAT FLUX                  0.255       TIME AVG. HEAT FLUX   9.162E-02
 LARGEST RESIDUAL HEAT FLUX        -3.003E-07   AT NODE      44036   DOF 12
   INSTANCE: CHD2                                                                            
 LARGEST INCREMENT OF TEMP.         3.229E-04   AT NODE         11   DOF 12
   INSTANCE: CHD2                                                                            
 LARGEST CORRECTION TO TEMP.       -3.736E-12   AT NODE      43167   DOF 12
   INSTANCE: CHD2                                                                            
          THE HEAT FLUX EQUILIBRIUM EQUATIONS HAVE CONVERGED

 MAXIMUM NON-PRESCRIBED INCREMENT IN TEMPERATURE IS   3.229E-04

 ITERATION SUMMARY FOR THE INCREMENT:   2 TOTAL ITERATIONS, OF WHICH
   0 ARE SEVERE DISCONTINUITY ITERATIONS AND  2 ARE EQUILIBRIUM ITERATIONS.

 TIME INCREMENT COMPLETED   8.59    ,  FRACTION OF STEP COMPLETED  0.190    
 STEP TIME COMPLETED        163.    ,  TOTAL TIME COMPLETED        7.363E+03


  INCREMENT    20 STARTS. ATTEMPT NUMBER  1, TIME INCREMENT   8.59    
 
	UNSYMMETRIC NEW DIRECT SPARSE SOLVER RUNNING ON
 	1 HOST x 1 MPI RANK PER HOST x 8 THREADS PER RANK
        NUMBER OF EQUATIONS:  221425
        NUMBER OF RHS:        1
        NUMBER OF FLOPS:      4.810e+11
        SOLVER ELAPSED TIME:  2.5s

               CONVERGENCE CHECKS FOR EQUILIBRIUM ITERATION     1


 AVERAGE FORCE                       2.15       TIME AVG. FORCE        1.13    
 LARGEST SCALED RESIDUAL FORCE     -7.172E-03   AT NODE      30766   DOF  2
   INSTANCE: CHD2                                                                            
  CORRESPONDING RESIDUAL FORCE     -7.172E-03
 LARGEST INCREMENT OF DISP.         2.148E-05   AT NODE      42998   DOF  2
   INSTANCE: CHD2                                                                            
 LARGEST CORRECTION TO DISP.        1.445E-08   AT NODE      28138   DOF  2
   INSTANCE: CHD2                                                                            
          FORCE     EQUILIBRIUM NOT ACHIEVED WITHIN TOLERANCE.

 AVERAGE HEAT FLUX                  0.285       TIME AVG. HEAT FLUX   0.102    
 LARGEST RESIDUAL HEAT FLUX        -9.488E-07   AT NODE      44036   DOF 12
   INSTANCE: CHD2                                                                            
 LARGEST INCREMENT OF TEMP.         3.427E-04   AT NODE         11   DOF 12
   INSTANCE: CHD2                                                                            
 LARGEST CORRECTION TO TEMP.        2.079E-05   AT NODE        593   DOF 12
   INSTANCE: CHD2                                                                            
 ESTIMATE OF TEMP.    CORRECTION   -4.860E-12
 HEAT FLUX EQUILIB. ACCEPTED BASED ON SMALL RESIDUAL AND ESTIMATED CORRECTION
 
	UNSYMMETRIC NEW DIRECT SPARSE SOLVER RUNNING ON
 	1 HOST x 1 MPI RANK PER HOST x 8 THREADS PER RANK
        NUMBER OF EQUATIONS:  221425
        NUMBER OF RHS:        1
        NUMBER OF FLOPS:      4.810e+11
        SOLVER ELAPSED TIME:  2.5s

               CONVERGENCE CHECKS FOR EQUILIBRIUM ITERATION     2


 AVERAGE FORCE                       2.15       TIME AVG. FORCE        1.13    
 LARGEST SCALED RESIDUAL FORCE      4.710E-07   AT NODE      17537   DOF  1
   INSTANCE: CHD2                                                                            
  CORRESPONDING RESIDUAL FORCE      4.710E-07
 LARGEST INCREMENT OF DISP.         2.148E-05   AT NODE      42998   DOF  2
   INSTANCE: CHD2                                                                            
 LARGEST CORRECTION TO DISP.        2.427E-10   AT NODE      30767   DOF  2
   INSTANCE: CHD2                                                                            
          THE FORCE     EQUILIBRIUM EQUATIONS HAVE CONVERGED

 AVERAGE HEAT FLUX                  0.285       TIME AVG. HEAT FLUX   0.102    
 LARGEST RESIDUAL HEAT FLUX        -2.820E-07   AT NODE      44120   DOF 12
   INSTANCE: CHD2                                                                            
 LARGEST INCREMENT OF TEMP.         3.427E-04   AT NODE         11   DOF 12
   INSTANCE: CHD2                                                                            
 LARGEST CORRECTION TO TEMP.       -2.393E-12   AT NODE      43167   DOF 12
   INSTANCE: CHD2                                                                            
          THE HEAT FLUX EQUILIBRIUM EQUATIONS HAVE CONVERGED

 MAXIMUM NON-PRESCRIBED INCREMENT IN TEMPERATURE IS   3.427E-04

 ITERATION SUMMARY FOR THE INCREMENT:   2 TOTAL ITERATIONS, OF WHICH
   0 ARE SEVERE DISCONTINUITY ITERATIONS AND  2 ARE EQUILIBRIUM ITERATIONS.

 TIME INCREMENT COMPLETED   8.59    ,  FRACTION OF STEP COMPLETED  0.200    
 STEP TIME COMPLETED        172.    ,  TOTAL TIME COMPLETED        7.372E+03


  INCREMENT    21 STARTS. ATTEMPT NUMBER  1, TIME INCREMENT   8.59    
 
	UNSYMMETRIC NEW DIRECT SPARSE SOLVER RUNNING ON
 	1 HOST x 1 MPI RANK PER HOST x 8 THREADS PER RANK
        NUMBER OF EQUATIONS:  221425
        NUMBER OF RHS:        1
        NUMBER OF FLOPS:      4.810e+11
        SOLVER ELAPSED TIME:  2.8s

               CONVERGENCE CHECKS FOR EQUILIBRIUM ITERATION     1


 AVERAGE FORCE                       2.25       TIME AVG. FORCE        1.18    
 LARGEST SCALED RESIDUAL FORCE      8.820E-03   AT NODE      33636   DOF  2
   INSTANCE: CHD2                                                                            
  CORRESPONDING RESIDUAL FORCE      8.820E-03
 LARGEST INCREMENT OF DISP.         2.148E-05   AT NODE      42998   DOF  2
   INSTANCE: CHD2                                                                            
 LARGEST CORRECTION TO DISP.       -1.568E-08   AT NODE        255   DOF  3
   INSTANCE: CHD2                                                                            
          FORCE     EQUILIBRIUM NOT ACHIEVED WITHIN TOLERANCE.

 AVERAGE HEAT FLUX                  0.317       TIME AVG. HEAT FLUX   0.113    
 LARGEST RESIDUAL HEAT FLUX        -1.114E-06   AT NODE      44113   DOF 12
   INSTANCE: CHD2                                                                            
 LARGEST INCREMENT OF TEMP.         3.624E-04   AT NODE         11   DOF 12
   INSTANCE: CHD2                                                                            
 LARGEST CORRECTION TO TEMP.        2.105E-05   AT NODE        556   DOF 12
   INSTANCE: CHD2                                                                            
 ESTIMATE OF TEMP.    CORRECTION   -5.753E-12
 HEAT FLUX EQUILIB. ACCEPTED BASED ON SMALL RESIDUAL AND ESTIMATED CORRECTION
 
	UNSYMMETRIC NEW DIRECT SPARSE SOLVER RUNNING ON
 	1 HOST x 1 MPI RANK PER HOST x 8 THREADS PER RANK
        NUMBER OF EQUATIONS:  221425
        NUMBER OF RHS:        1
        NUMBER OF FLOPS:      4.810e+11
        SOLVER ELAPSED TIME:  2.9s

               CONVERGENCE CHECKS FOR EQUILIBRIUM ITERATION     2


 AVERAGE FORCE                       2.25       TIME AVG. FORCE        1.18    
 LARGEST SCALED RESIDUAL FORCE      7.632E-07   AT NODE       4640   DOF  1
   INSTANCE: CHD2                                                                            
  CORRESPONDING RESIDUAL FORCE      7.632E-07
 LARGEST INCREMENT OF DISP.         2.148E-05   AT NODE      42998   DOF  2
   INSTANCE: CHD2                                                                            
 LARGEST CORRECTION TO DISP.       -3.842E-10   AT NODE       8290   DOF  3
   INSTANCE: CHD2                                                                            
          THE FORCE     EQUILIBRIUM EQUATIONS HAVE CONVERGED

 AVERAGE HEAT FLUX                  0.317       TIME AVG. HEAT FLUX   0.113    
 LARGEST RESIDUAL HEAT FLUX        -2.835E-07   AT NODE      44043   DOF 12
   INSTANCE: CHD2                                                                            
 LARGEST INCREMENT OF TEMP.         3.624E-04   AT NODE         11   DOF 12
   INSTANCE: CHD2                                                                            
 LARGEST CORRECTION TO TEMP.       -2.800E-12   AT NODE      43390   DOF 12
   INSTANCE: CHD2                                                                            
          THE HEAT FLUX EQUILIBRIUM EQUATIONS HAVE CONVERGED

 MAXIMUM NON-PRESCRIBED INCREMENT IN TEMPERATURE IS   3.624E-04

 ITERATION SUMMARY FOR THE INCREMENT:   2 TOTAL ITERATIONS, OF WHICH
   0 ARE SEVERE DISCONTINUITY ITERATIONS AND  2 ARE EQUILIBRIUM ITERATIONS.

 TIME INCREMENT COMPLETED   8.59    ,  FRACTION OF STEP COMPLETED  0.210    
 STEP TIME COMPLETED        180.    ,  TOTAL TIME COMPLETED        7.380E+03


  INCREMENT    22 STARTS. ATTEMPT NUMBER  1, TIME INCREMENT   8.59    
 
	UNSYMMETRIC NEW DIRECT SPARSE SOLVER RUNNING ON
 	1 HOST x 1 MPI RANK PER HOST x 8 THREADS PER RANK
        NUMBER OF EQUATIONS:  221425
        NUMBER OF RHS:        1
        NUMBER OF FLOPS:      4.810e+11
        SOLVER ELAPSED TIME:  3.0s

               CONVERGENCE CHECKS FOR EQUILIBRIUM ITERATION     1


 AVERAGE FORCE                       2.36       TIME AVG. FORCE        1.23    
 LARGEST SCALED RESIDUAL FORCE     -7.744E-03   AT NODE      33602   DOF  2
   INSTANCE: CHD2                                                                            
  CORRESPONDING RESIDUAL FORCE     -7.744E-03
 LARGEST INCREMENT OF DISP.         2.148E-05   AT NODE      42998   DOF  2
   INSTANCE: CHD2                                                                            
 LARGEST CORRECTION TO DISP.        1.590E-08   AT NODE      10998   DOF  2
   INSTANCE: CHD2                                                                            
          FORCE     EQUILIBRIUM NOT ACHIEVED WITHIN TOLERANCE.

 AVERAGE HEAT FLUX                  0.352       TIME AVG. HEAT FLUX   0.124    
 LARGEST RESIDUAL HEAT FLUX        -1.151E-06   AT NODE      44113   DOF 12
   INSTANCE: CHD2                                                                            
 LARGEST INCREMENT OF TEMP.         3.826E-04   AT NODE         10   DOF 12
   INSTANCE: CHD2                                                                            
 LARGEST CORRECTION TO TEMP.        2.165E-05   AT NODE        556   DOF 12
   INSTANCE: CHD2                                                                            
 ESTIMATE OF TEMP.    CORRECTION   -6.081E-12
 HEAT FLUX EQUILIB. ACCEPTED BASED ON SMALL RESIDUAL AND ESTIMATED CORRECTION
 
	UNSYMMETRIC NEW DIRECT SPARSE SOLVER RUNNING ON
 	1 HOST x 1 MPI RANK PER HOST x 8 THREADS PER RANK
        NUMBER OF EQUATIONS:  221425
        NUMBER OF RHS:        1
        NUMBER OF FLOPS:      4.810e+11
        SOLVER ELAPSED TIME:  2.8s

               CONVERGENCE CHECKS FOR EQUILIBRIUM ITERATION     2


 AVERAGE FORCE                       2.36       TIME AVG. FORCE        1.23    
 LARGEST SCALED RESIDUAL FORCE     -6.358E-07   AT NODE       7129   DOF  3
   INSTANCE: CHD2                                                                            
  CORRESPONDING RESIDUAL FORCE     -6.358E-07
 LARGEST INCREMENT OF DISP.         2.148E-05   AT NODE      42998   DOF  2
   INSTANCE: CHD2                                                                            
 LARGEST CORRECTION TO DISP.        3.913E-10   AT NODE        256   DOF  2
   INSTANCE: CHD2                                                                            
          THE FORCE     EQUILIBRIUM EQUATIONS HAVE CONVERGED

 AVERAGE HEAT FLUX                  0.352       TIME AVG. HEAT FLUX   0.124    
 LARGEST RESIDUAL HEAT FLUX        -2.776E-07   AT NODE      44043   DOF 12
   INSTANCE: CHD2                                                                            
 LARGEST INCREMENT OF TEMP.         3.826E-04   AT NODE         10   DOF 12
   INSTANCE: CHD2                                                                            
 LARGEST CORRECTION TO TEMP.       -2.896E-12   AT NODE      43390   DOF 12
   INSTANCE: CHD2                                                                            
          THE HEAT FLUX EQUILIBRIUM EQUATIONS HAVE CONVERGED

 MAXIMUM NON-PRESCRIBED INCREMENT IN TEMPERATURE IS   3.826E-04

 ITERATION SUMMARY FOR THE INCREMENT:   2 TOTAL ITERATIONS, OF WHICH
   0 ARE SEVERE DISCONTINUITY ITERATIONS AND  2 ARE EQUILIBRIUM ITERATIONS.

 TIME INCREMENT COMPLETED   8.59    ,  FRACTION OF STEP COMPLETED  0.220    
 STEP TIME COMPLETED        189.    ,  TOTAL TIME COMPLETED        7.389E+03


[...]
   INSTANCE: CHD2                                                                            
  CORRESPONDING RESIDUAL FORCE      -7.92    
 LARGEST INCREMENT OF DISP.         2.633E-05   AT NODE      12439   DOF  2
   INSTANCE: CHD2                                                                            
 LARGEST CORRECTION TO DISP.       -9.930E-06   AT NODE      36763   DOF  1
   INSTANCE: CHD2                                                                            
          FORCE     EQUILIBRIUM NOT ACHIEVED WITHIN TOLERANCE.

 AVERAGE HEAT FLUX                   112.       TIME AVG. HEAT FLUX    30.8    
 LARGEST RESIDUAL HEAT FLUX        -2.499E-07   AT NODE      44043   DOF 12
   INSTANCE: CHD2                                                                            
 LARGEST INCREMENT OF TEMP.         1.005E-02   AT NODE      10956   DOF 12
   INSTANCE: CHD2                                                                            
 LARGEST CORRECTION TO TEMP.       -7.411E-13   AT NODE      43141   DOF 12
   INSTANCE: CHD2                                                                            
          THE HEAT FLUX EQUILIBRIUM EQUATIONS HAVE CONVERGED
 
	UNSYMMETRIC NEW DIRECT SPARSE SOLVER RUNNING ON
 	1 HOST x 1 MPI RANK PER HOST x 8 THREADS PER RANK
        NUMBER OF EQUATIONS:  221425
        NUMBER OF RHS:        1
        NUMBER OF FLOPS:      4.810e+11
        SOLVER ELAPSED TIME:  3.8s

               CONVERGENCE CHECKS FOR EQUILIBRIUM ITERATION     3


 AVERAGE FORCE                       3.83       TIME AVG. FORCE        3.16    
 LARGEST SCALED RESIDUAL FORCE     -0.966       AT NODE      37261   DOF  3
   INSTANCE: CHD2                                                                            
  CORRESPONDING RESIDUAL FORCE     -0.966    
 LARGEST INCREMENT OF DISP.         2.659E-05   AT NODE      35716   DOF  2
   INSTANCE: CHD2                                                                            
 LARGEST CORRECTION TO DISP.        9.840E-07   AT NODE      11214   DOF  2
   INSTANCE: CHD2                                                                            
          FORCE     EQUILIBRIUM NOT ACHIEVED WITHIN TOLERANCE.

 AVERAGE HEAT FLUX                   112.       TIME AVG. HEAT FLUX    30.8    
 LARGEST RESIDUAL HEAT FLUX        -2.464E-07   AT NODE      44043   DOF 12
   INSTANCE: CHD2                                                                            
 LARGEST INCREMENT OF TEMP.         1.005E-02   AT NODE      10956   DOF 12
   INSTANCE: CHD2                                                                            
 LARGEST CORRECTION TO TEMP.       -7.306E-13   AT NODE      43141   DOF 12
   INSTANCE: CHD2                                                                            
          THE HEAT FLUX EQUILIBRIUM EQUATIONS HAVE CONVERGED
 
	UNSYMMETRIC NEW DIRECT SPARSE SOLVER RUNNING ON
 	1 HOST x 1 MPI RANK PER HOST x 8 THREADS PER RANK
        NUMBER OF EQUATIONS:  221425
        NUMBER OF RHS:        1
        NUMBER OF FLOPS:      4.810e+11
        SOLVER ELAPSED TIME:  3.8s

               CONVERGENCE CHECKS FOR EQUILIBRIUM ITERATION     4


 AVERAGE FORCE                       3.83       TIME AVG. FORCE        3.16    
 LARGEST SCALED RESIDUAL FORCE      0.142       AT NODE      36911   DOF  2
   INSTANCE: CHD2                                                                            
  CORRESPONDING RESIDUAL FORCE      0.142    
 LARGEST INCREMENT OF DISP.         2.663E-05   AT NODE      35716   DOF  2
   INSTANCE: CHD2                                                                            
 LARGEST CORRECTION TO DISP.        3.305E-07   AT NODE      11179   DOF  2
   INSTANCE: CHD2                                                                            
          FORCE     EQUILIBRIUM NOT ACHIEVED WITHIN TOLERANCE.

 AVERAGE HEAT FLUX                   112.       TIME AVG. HEAT FLUX    30.8    
 LARGEST RESIDUAL HEAT FLUX        -2.429E-07   AT NODE      44043   DOF 12
   INSTANCE: CHD2                                                                            
 LARGEST INCREMENT OF TEMP.         1.005E-02   AT NODE      10956   DOF 12
   INSTANCE: CHD2                                                                            
 LARGEST CORRECTION TO TEMP.       -7.203E-13   AT NODE      43141   DOF 12
   INSTANCE: CHD2                                                                            
          THE HEAT FLUX EQUILIBRIUM EQUATIONS HAVE CONVERGED
 
	UNSYMMETRIC NEW DIRECT SPARSE SOLVER RUNNING ON
 	1 HOST x 1 MPI RANK PER HOST x 8 THREADS PER RANK
        NUMBER OF EQUATIONS:  221425
        NUMBER OF RHS:        1
        NUMBER OF FLOPS:      4.810e+11
        SOLVER ELAPSED TIME:  3.9s

               CONVERGENCE CHECKS FOR EQUILIBRIUM ITERATION     5


 AVERAGE FORCE                       3.83       TIME AVG. FORCE        3.16    
 LARGEST SCALED RESIDUAL FORCE      2.285E-02   AT NODE      33366   DOF  2
   INSTANCE: CHD2                                                                            
  CORRESPONDING RESIDUAL FORCE      2.285E-02
 LARGEST INCREMENT OF DISP.         2.664E-05   AT NODE      35716   DOF  2
   INSTANCE: CHD2                                                                            
 LARGEST CORRECTION TO DISP.       -5.864E-08   AT NODE        543   DOF  2
   INSTANCE: CHD2                                                                            
          FORCE     EQUILIBRIUM NOT ACHIEVED WITHIN TOLERANCE.

 AVERAGE HEAT FLUX                   112.       TIME AVG. HEAT FLUX    30.8    
 LARGEST RESIDUAL HEAT FLUX        -2.395E-07   AT NODE      44043   DOF 12
   INSTANCE: CHD2                                                                            
 LARGEST INCREMENT OF TEMP.         1.005E-02   AT NODE      10956   DOF 12
   INSTANCE: CHD2                                                                            
 LARGEST CORRECTION TO TEMP.       -7.101E-13   AT NODE      43141   DOF 12
   INSTANCE: CHD2                                                                            
          THE HEAT FLUX EQUILIBRIUM EQUATIONS HAVE CONVERGED
 
	UNSYMMETRIC NEW DIRECT SPARSE SOLVER RUNNING ON
 	1 HOST x 1 MPI RANK PER HOST x 8 THREADS PER RANK
        NUMBER OF EQUATIONS:  221425
        NUMBER OF RHS:        1
        NUMBER OF FLOPS:      4.810e+11
        SOLVER ELAPSED TIME:  4.1s

               CONVERGENCE CHECKS FOR EQUILIBRIUM ITERATION     6


 AVERAGE FORCE                       3.83       TIME AVG. FORCE        3.16    
 LARGEST SCALED RESIDUAL FORCE      3.195E-03   AT NODE      33350   DOF  2
   INSTANCE: CHD2                                                                            
  CORRESPONDING RESIDUAL FORCE      3.195E-03
 LARGEST INCREMENT OF DISP.         2.664E-05   AT NODE      35716   DOF  2
   INSTANCE: CHD2                                                                            
 LARGEST CORRECTION TO DISP.       -6.788E-09   AT NODE      10872   DOF  2
   INSTANCE: CHD2                                                                            
          THE FORCE     EQUILIBRIUM EQUATIONS HAVE CONVERGED

 AVERAGE HEAT FLUX                   112.       TIME AVG. HEAT FLUX    30.8    
 LARGEST RESIDUAL HEAT FLUX        -2.361E-07   AT NODE      44043   DOF 12
   INSTANCE: CHD2                                                                            
 LARGEST INCREMENT OF TEMP.         1.005E-02   AT NODE      10956   DOF 12
   INSTANCE: CHD2                                                                            
 LARGEST CORRECTION TO TEMP.       -7.001E-13   AT NODE      43141   DOF 12
   INSTANCE: CHD2                                                                            
          THE HEAT FLUX EQUILIBRIUM EQUATIONS HAVE CONVERGED

 MAXIMUM NON-PRESCRIBED INCREMENT IN TEMPERATURE IS   1.005E-02

 ITERATION SUMMARY FOR THE INCREMENT:   6 TOTAL ITERATIONS, OF WHICH
   0 ARE SEVERE DISCONTINUITY ITERATIONS AND  6 ARE EQUILIBRIUM ITERATIONS.

 TIME INCREMENT COMPLETED   8.59    ,  FRACTION OF STEP COMPLETED  0.990    
 STEP TIME COMPLETED        850.    ,  TOTAL TIME COMPLETED        8.050E+03


  INCREMENT   108 STARTS. ATTEMPT NUMBER  1, TIME INCREMENT   8.59    
 
	UNSYMMETRIC NEW DIRECT SPARSE SOLVER RUNNING ON
 	1 HOST x 1 MPI RANK PER HOST x 8 THREADS PER RANK
        NUMBER OF EQUATIONS:  221425
        NUMBER OF RHS:        1
        NUMBER OF FLOPS:      4.810e+11
        SOLVER ELAPSED TIME:  2.7s

               CONVERGENCE CHECKS FOR EQUILIBRIUM ITERATION     1


 AVERAGE FORCE                       3.77       TIME AVG. FORCE        3.17    
 LARGEST SCALED RESIDUAL FORCE      -75.2       AT NODE      36689   DOF  3
   INSTANCE: CHD2                                                                            
  CORRESPONDING RESIDUAL FORCE      -75.2    
 LARGEST INCREMENT OF DISP.         2.865E-05   AT NODE      11307   DOF  2
   INSTANCE: CHD2                                                                            
 LARGEST CORRECTION TO DISP.       -2.573E-05   AT NODE       4835   DOF  2
   INSTANCE: CHD2                                                                            
          FORCE     EQUILIBRIUM NOT ACHIEVED WITHIN TOLERANCE.

 AVERAGE HEAT FLUX                   114.       TIME AVG. HEAT FLUX    31.6    
 LARGEST RESIDUAL HEAT FLUX        -4.125E-07   AT NODE      44043   DOF 12
   INSTANCE: CHD2                                                                            
 LARGEST INCREMENT OF TEMP.         9.739E-03   AT NODE      11331   DOF 12
   INSTANCE: CHD2                                                                            
 LARGEST CORRECTION TO TEMP.       -7.701E-03   AT NODE      36760   DOF 12
   INSTANCE: CHD2                                                                            
 ESTIMATE OF TEMP.    CORRECTION    1.115E-11
 HEAT FLUX EQUILIB. ACCEPTED BASED ON SMALL RESIDUAL AND ESTIMATED CORRECTION
 
	UNSYMMETRIC NEW DIRECT SPARSE SOLVER RUNNING ON
 	1 HOST x 1 MPI RANK PER HOST x 8 THREADS PER RANK
        NUMBER OF EQUATIONS:  221425
        NUMBER OF RHS:        1
        NUMBER OF FLOPS:      4.810e+11
        SOLVER ELAPSED TIME:  2.4s

               CONVERGENCE CHECKS FOR EQUILIBRIUM ITERATION     2


 AVERAGE FORCE                       3.80       TIME AVG. FORCE        3.17    
 LARGEST SCALED RESIDUAL FORCE      -7.56       AT NODE      39121   DOF  2
   INSTANCE: CHD2                                                                            
  CORRESPONDING RESIDUAL FORCE      -7.56    
 LARGEST INCREMENT OF DISP.         2.588E-05   AT NODE      10670   DOF  2
   INSTANCE: CHD2                                                                            
 LARGEST CORRECTION TO DISP.        4.402E-06   AT NODE      37186   DOF  1
   INSTANCE: CHD2                                                                            
          FORCE     EQUILIBRIUM NOT ACHIEVED WITHIN TOLERANCE.

 AVERAGE HEAT FLUX                   114.       TIME AVG. HEAT FLUX    31.6    
 LARGEST RESIDUAL HEAT FLUX        -4.067E-07   AT NODE      44043   DOF 12
   INSTANCE: CHD2                                                                            
 LARGEST INCREMENT OF TEMP.         9.739E-03   AT NODE      11331   DOF 12
   INSTANCE: CHD2                                                                            
 LARGEST CORRECTION TO TEMP.       -1.206E-12   AT NODE      43141   DOF 12
   INSTANCE: CHD2                                                                            
          THE HEAT FLUX EQUILIBRIUM EQUATIONS HAVE CONVERGED
 
	UNSYMMETRIC NEW DIRECT SPARSE SOLVER RUNNING ON
 	1 HOST x 1 MPI RANK PER HOST x 8 THREADS PER RANK
        NUMBER OF EQUATIONS:  221425
        NUMBER OF RHS:        1
        NUMBER OF FLOPS:      4.810e+11
        SOLVER ELAPSED TIME:  2.6s

               CONVERGENCE CHECKS FOR EQUILIBRIUM ITERATION     3


 AVERAGE FORCE                       3.80       TIME AVG. FORCE        3.17    
 LARGEST SCALED RESIDUAL FORCE      0.874       AT NODE      35698   DOF  2
   INSTANCE: CHD2                                                                            
  CORRESPONDING RESIDUAL FORCE      0.874    
 LARGEST INCREMENT OF DISP.         2.624E-05   AT NODE      10670   DOF  2
   INSTANCE: CHD2                                                                            
 LARGEST CORRECTION TO DISP.       -9.451E-07   AT NODE        567   DOF  1
   INSTANCE: CHD2                                                                            
          FORCE     EQUILIBRIUM NOT ACHIEVED WITHIN TOLERANCE.

 AVERAGE HEAT FLUX                   114.       TIME AVG. HEAT FLUX    31.6    
 LARGEST RESIDUAL HEAT FLUX        -4.009E-07   AT NODE      44043   DOF 12
   INSTANCE: CHD2                                                                            
 LARGEST INCREMENT OF TEMP.         9.739E-03   AT NODE      11331   DOF 12
   INSTANCE: CHD2                                                                            
 LARGEST CORRECTION TO TEMP.       -1.189E-12   AT NODE      43141   DOF 12
   INSTANCE: CHD2                                                                            
          THE HEAT FLUX EQUILIBRIUM EQUATIONS HAVE CONVERGED
 
	UNSYMMETRIC NEW DIRECT SPARSE SOLVER RUNNING ON
 	1 HOST x 1 MPI RANK PER HOST x 8 THREADS PER RANK
        NUMBER OF EQUATIONS:  221425
        NUMBER OF RHS:        1
        NUMBER OF FLOPS:      4.810e+11
        SOLVER ELAPSED TIME:  2.6s

               CONVERGENCE CHECKS FOR EQUILIBRIUM ITERATION     4


 AVERAGE FORCE                       3.80       TIME AVG. FORCE        3.17    
 LARGEST SCALED RESIDUAL FORCE      8.573E-02   AT NODE      23367   DOF  2
   INSTANCE: CHD2                                                                            
  CORRESPONDING RESIDUAL FORCE      8.573E-02
 LARGEST INCREMENT OF DISP.         2.629E-05   AT NODE      10670   DOF  2
   INSTANCE: CHD2                                                                            
 LARGEST CORRECTION TO DISP.        2.433E-07   AT NODE       4856   DOF  2
   INSTANCE: CHD2                                                                            
          FORCE     EQUILIBRIUM NOT ACHIEVED WITHIN TOLERANCE.

 AVERAGE HEAT FLUX                   114.       TIME AVG. HEAT FLUX    31.6    
 LARGEST RESIDUAL HEAT FLUX        -3.953E-07   AT NODE      44043   DOF 12
   INSTANCE: CHD2                                                                            
 LARGEST INCREMENT OF TEMP.         9.739E-03   AT NODE      11331   DOF 12
   INSTANCE: CHD2                                                                            
 LARGEST CORRECTION TO TEMP.       -1.172E-12   AT NODE      43141   DOF 12
   INSTANCE: CHD2                                                                            
          THE HEAT FLUX EQUILIBRIUM EQUATIONS HAVE CONVERGED
 
	UNSYMMETRIC NEW DIRECT SPARSE SOLVER RUNNING ON
 	1 HOST x 1 MPI RANK PER HOST x 8 THREADS PER RANK
        NUMBER OF EQUATIONS:  221425
        NUMBER OF RHS:        1
        NUMBER OF FLOPS:      4.810e+11
        SOLVER ELAPSED TIME:  2.6s

               CONVERGENCE CHECKS FOR EQUILIBRIUM ITERATION     5


 AVERAGE FORCE                       3.80       TIME AVG. FORCE        3.17    
 LARGEST SCALED RESIDUAL FORCE     -1.671E-02   AT NODE      33883   DOF  2
   INSTANCE: CHD2                                                                            
  CORRESPONDING RESIDUAL FORCE     -1.671E-02
 LARGEST INCREMENT OF DISP.         2.630E-05   AT NODE      10670   DOF  2
   INSTANCE: CHD2                                                                            
 LARGEST CORRECTION TO DISP.        3.528E-08   AT NODE        548   DOF  2
   INSTANCE: CHD2                                                                            
          FORCE     EQUILIBRIUM NOT ACHIEVED WITHIN TOLERANCE.

 AVERAGE HEAT FLUX                   114.       TIME AVG. HEAT FLUX    31.6    
 LARGEST RESIDUAL HEAT FLUX        -3.897E-07   AT NODE      44043   DOF 12
   INSTANCE: CHD2                                                                            
 LARGEST INCREMENT OF TEMP.         9.739E-03   AT NODE      11331   DOF 12
   INSTANCE: CHD2                                                                            
 LARGEST CORRECTION TO TEMP.       -1.155E-12   AT NODE      43141   DOF 12
   INSTANCE: CHD2                                                                            
          THE HEAT FLUX EQUILIBRIUM EQUATIONS HAVE CONVERGED
 
	UNSYMMETRIC NEW DIRECT SPARSE SOLVER RUNNING ON
 	1 HOST x 1 MPI RANK PER HOST x 8 THREADS PER RANK
        NUMBER OF EQUATIONS:  221425
        NUMBER OF RHS:        1
        NUMBER OF FLOPS:      4.810e+11
        SOLVER ELAPSED TIME:  2.9s

               CONVERGENCE CHECKS FOR EQUILIBRIUM ITERATION     6


 AVERAGE FORCE                       3.80       TIME AVG. FORCE        3.17    
 LARGEST SCALED RESIDUAL FORCE      1.987E-03   AT NODE      33918   DOF  2
   INSTANCE: CHD2                                                                            
  CORRESPONDING RESIDUAL FORCE      1.987E-03
 LARGEST INCREMENT OF DISP.         2.630E-05   AT NODE      10670   DOF  2
   INSTANCE: CHD2                                                                            
 LARGEST CORRECTION TO DISP.        3.638E-09   AT NODE       4832   DOF  2
   INSTANCE: CHD2                                                                            
          THE FORCE     EQUILIBRIUM EQUATIONS HAVE CONVERGED

 AVERAGE HEAT FLUX                   114.       TIME AVG. HEAT FLUX    31.6    
 LARGEST RESIDUAL HEAT FLUX        -3.842E-07   AT NODE      44043   DOF 12
   INSTANCE: CHD2                                                                            
 LARGEST INCREMENT OF TEMP.         9.739E-03   AT NODE      11331   DOF 12
   INSTANCE: CHD2                                                                            
 LARGEST CORRECTION TO TEMP.       -1.139E-12   AT NODE      43141   DOF 12
   INSTANCE: CHD2                                                                            
          THE HEAT FLUX EQUILIBRIUM EQUATIONS HAVE CONVERGED

 MAXIMUM NON-PRESCRIBED INCREMENT IN TEMPERATURE IS   9.739E-03

 ITERATION SUMMARY FOR THE INCREMENT:   6 TOTAL ITERATIONS, OF WHICH
   0 ARE SEVERE DISCONTINUITY ITERATIONS AND  6 ARE EQUILIBRIUM ITERATIONS.

 TIME INCREMENT COMPLETED   8.59    ,  FRACTION OF STEP COMPLETED   1.00    
 STEP TIME COMPLETED        859.    ,  TOTAL TIME COMPLETED        8.059E+03


          THE ANALYSIS HAS BEEN COMPLETED



     ANALYSIS SUMMARY:
     TOTAL OF        118  INCREMENTS
                       2  CUTBACKS IN AUTOMATIC INCREMENTATION
                     293  ITERATIONS INCLUDING CONTACT ITERATIONS IF PRESENT
                     293  PASSES THROUGH THE EQUATION SOLVER OF WHICH 
                     293  INVOLVE MATRIX DECOMPOSITION, INCLUDING
                       0  DECOMPOSITION(S) OF THE MASS MATRIX
                       1  REORDERING OF EQUATIONS TO MINIMIZE WAVEFRONT
                       0  ADDITIONAL RESIDUAL EVALUATIONS FOR LINE SEARCHES
                       0  ADDITIONAL OPERATOR EVALUATIONS FOR LINE SEARCHES
                       8  WARNING MESSAGES DURING USER INPUT PROCESSING
                       0  WARNING MESSAGES DURING ANALYSIS
                       0  ANALYSIS WARNINGS ARE NUMERICAL PROBLEM MESSAGES
                       0  ANALYSIS WARNINGS ARE NEGATIVE EIGENVALUE MESSAGES
                       0  ERROR MESSAGES



     JOB TIME SUMMARY
       USER TIME (SEC)      =     3.06E+03
       SYSTEM TIME (SEC)    =      90.    
       TOTAL CPU TIME (SEC) =     3.15E+03
       WALLCLOCK TIME (SEC) =         1350
       MEMORY PEAK (GB)     =            1
