*Heading
**
** PARTS
**
*Part, name=cup
*End Part
**  
*Part, name=die
*End Part
**  
*Part, name=punch
*End Part
**  
**
** ASSEMBLY
**
*Assembly, name=Assembly
**  
*Instance, name=punch-1, part=punch
*Node
      1,           5.,          90.,           0.
*Nset, nset=punch-1-RefPt_, internal
1, 
*Surface, type=SEGMENTS, name=punch
START,          80.,       145.15
 LINE,        64.44,       145.15
 LINE, 64.1399173728785, 128.025784883219
 CIRCL,           0.,          65.,           0., 129.149764859957
*Rigid Body, ref node=punch-1-RefPt_, analytical surface=punch
*End Instance
**  
*Instance, name=die-1, part=die
*Node
      1,           0.,         -25.,           0.
*Nset, nset=die-1-RefPt_, internal
1, 
*Surface, type=SEGMENTS, name=die
START,           0., -21.42
 CIRCL, 75.6254277590843, 51.5398316489961,           0., 54.2541216933095
 LINE, 76.2879635709015, 69.9993747915413
*Rigid Body, ref node=die-1-RefPt_, analytical surface=die
*End Instance
**  
*Instance, name=cup-1, part=cup
          0.,         32.5,           0.
*Node
      1,          50.,        -29.5
      2,           0.,        -29.5
      3,           0.,        -32.5
      4,          47.,        -32.5
      5,           0.,     29.53913
      6,          50.,         29.5
      7,          47.,         32.5
      8,           0.,         32.5
      9,         47.5,        -29.5
     10,          45.,        -29.5
     11,         42.5,        -29.5
     12,          40.,        -29.5
     13,         37.5,        -29.5
     14,          35.,        -29.5
     15,         32.5,        -29.5
     16,          30.,        -29.5
     17,         27.5,        -29.5
     18,          25.,        -29.5
     19,         22.5,        -29.5
     20,          20.,        -29.5
** ... 505 like lines cut
*Element, type=CAX4R
 1,   1,   9, 127,  48
 2,   9,  10, 128, 127
 3,  10,  11, 129, 128
 4,  11,  12, 130, 129
 5,  12,  13, 131, 130
 6,  13,  14, 132, 131
 7,  14,  15, 133, 132
 8,  15,  16, 134, 133
 9,  16,  17, 135, 134
10,  17,  18, 136, 135
11,  18,  19, 137, 136
12,  19,  20, 138, 137
13,  20,  21, 139, 138
14,  21,  22, 140, 139
15,  22,  23, 141, 140
16,  23,  24, 142, 141
17,  24,  25, 143, 142
18,  25,  26, 144, 143
19,  26,  27, 145, 144
20,  27,   2,  28, 145
** ... 460 like lines cut
** Region: (Section-1:Picked)
*Elset, elset=_I1, internal, generate
   1,  480,    1
** Section: Section-1
*Solid Section, elset=_I1, controls=EC-1, material=AL1
1.,
*End Instance
*Nset, nset=xsymm, instance=cup-1
   2,   3,   5,   8,  28,  88,  89,  90,  91,  92,  93,  94,  95,  96,  97,  98
  99, 100, 101, 102, 103, 104, 105, 106, 107
*Elset, elset=xsymm, instance=cup-1
  20,  40,  41,  61, 100, 120, 140, 160, 180, 200, 220, 240, 260, 280, 300, 320
 340, 360, 380, 400, 420, 440, 460, 480
*Nset, nset=refPunch, instance=punch-1
 1,
*Nset, nset=refDie, instance=die-1
 1,
*Nset, nset=cup, instance=cup-1, generate
   1,  391,    1
*Nset, nset=qa_test, instance=cup-1, generate
69,87,1
*Elset, elset=cup, instance=cup-1, generate
   1,  352,    1
*Elset, elset=_cup_bot_S3, internal, instance=cup-1, generate
 21,  40,   1
*Elset, elset=_cup_bot_S4, internal, instance=cup-1
   1,  21,  81, 101, 121, 141, 161, 181, 201, 221, 241, 261, 281, 301, 321, 341
 361, 381, 401, 421, 441, 461
*Surface, type=ELEMENT, name=cup_bot
_cup_bot_S3, S3
_cup_bot_S4, S4
*Elset, elset=_cup_top_S2, internal, instance=cup-1
 60, 80
*Elset, elset=_cup_top_S3, internal, instance=cup-1, generate
 61,  80,   1
*Elset, elset=_cup_top_S4, internal, instance=cup-1, generate
  81,  461,   20
*Surface, type=ELEMENT, name=cup_top
_cup_top_S2, S2
_cup_top_S3, S3
_cup_top_S4, S4
*End Assembly
** 
** ELEMENT CONTROLS
** 
*Section Controls, name=EC-1, hourglass=ENHANCED
1., 1., 1.
*Amplitude, name=smooth-1, definition=SMOOTH STEP
0., 0., 0.1, 1.
*Amplitude, name=smooth-2, definition=SMOOTH STEP
0., 0., 0.5, 1.
** 
** MATERIALS
** 
*Material, name=AL1
*Density
 1.8e-06,
*Elastic
4000., 0.21
*Plastic
  5.,   0.
 5.1, 0.22
** 
** INTERACTION PROPERTIES
** 
*Surface Interaction, name=Fric
1.,
*Friction, taumax=5.
 0.5,
** 
** BOUNDARY CONDITIONS
** 
** Name: die Type: Displacement/Rotation
*Boundary
refDie, 1, 1
refDie, 2, 2
refDie, 6, 6
** Name: punch Type: Displacement/Rotation
*Boundary
refPunch, 1, 1
refPunch, 2, 2
refPunch, 6, 6
** Name: xsymm Type: Symmetry/Antisymmetry/Encastre
*Boundary
xsymm, XSYMM
**
** ----------------------------------------------------------------
** 
** STEP: Step-1
** 
*Step, name=Step-1
move die
*Dynamic, Explicit
, 0.1
*Bulk Viscosity
0.06, 1.2
** Mass Scaling: Semi-Automatic
**               Whole Model
*Fixed Mass Scaling, factor=20.
** 
** BOUNDARY CONDITIONS
** 
** Name: die Type: Displacement/Rotation
*Boundary, amplitude=smooth-1
refDie, 2, 2, 5.
*Adaptive Mesh Controls, name=Ada-1
1., 0., 0.
*Adaptive Mesh, elset=cup, controls=Ada-1, op=NEW
** 
** INTERACTIONS
** 
*Contact, op=NEW
*Contact Inclusions, ALL EXTERIOR
*Contact Property Assignment
 ,  , Fric
** 
** OUTPUT REQUESTS
** 
*Restart, write, number interval=1, time marks=NO
** 
** FIELD OUTPUT: F-Output-1
** 
*Output, field, variable=PRESELECT
*Node output, nset=qa_test
u,
** 
** HISTORY OUTPUT: H-Output-1
** 
*Output, history, variable=PRESELECT, time interval=0.0005
*End Step
** ----------------------------------------------------------------
** 
** STEP: Step-2
** 
*Step, name=Step-2
move punch
*Dynamic, Explicit
, 0.5
*Bulk Viscosity
0.06, 1.2
** 
** BOUNDARY CONDITIONS
** 
** Name: punch Type: Displacement/Rotation
*Boundary, amplitude=smooth-2
refPunch, 2, 2, -15.
*Adaptive Mesh, elset=cup, controls=Ada-1, op=NEW
** 
** OUTPUT REQUESTS
** 
*Restart, write, number interval=1, time marks=NO
** 
** FIELD OUTPUT: F-Output-1
** 
*Output, field, variable=PRESELECT, number interval=3
** 
** HISTORY OUTPUT: H-Output-1
** 
*Output, history, variable=PRESELECT, time interval=0.0025
** 
** HISTORY OUTPUT: H-Output-2
** 
*Output, history, time interval=0.0002
*Node Output, nset=refDie
U2, RF2
** 
** HISTORY OUTPUT: H-Output-3
** 
*Node Output, nset=refPunch
U2, RF2
*End Step
