 Abaqus/Standard 2023.HF4                  DATE 05-Mar-2024 TIME 17:08:25
 SUMMARY OF JOB INFORMATION:
 STEP  INC ATT SEVERE EQUIL TOTAL  TOTAL      STEP       INC OF       DOF    IF
               DISCON ITERS ITERS  TIME/    TIME/LPF    TIME/LPF    MONITOR RIKS
               ITERS               FREQ
   1     1   1     0     1     1  1.00e+04   1.00e+04   1.000e+04 
   1     2   1     0     1     1  2.00e+04   2.00e+04   1.000e+04 
   1     3   1     0     1     1  3.00e+04   3.00e+04   1.000e+04 
   1     4   1     0     1     1  4.00e+04   4.00e+04   1.000e+04 
   1     5   1     0     1     1  5.00e+04   5.00e+04   1.000e+04 
   1     6   1     0     1     1  6.00e+04   6.00e+04   1.000e+04 
   1     7   1     0     1     1  7.00e+04   7.00e+04   1.000e+04 
   1     8   1     0     1     1  8.00e+04   8.00e+04   1.000e+04 
   1     9   1     0     1     1  9.00e+04   9.00e+04   1.000e+04 
   1    10   1     0     1     1  1.00e+05   1.00e+05   1.000e+04 
   1    11   1     0     1     1  1.10e+05   1.10e+05   1.000e+04 
   1    12   1     0     1     1  1.20e+05   1.20e+05   1.000e+04 
   1    13   1     0     1     1  1.30e+05   1.30e+05   1.000e+04 
   1    14   1     0     1     1  1.40e+05   1.40e+05   1.000e+04 
   1    15   1     0     1     1  1.50e+05   1.50e+05   1.000e+04 
   1    16   1     0     1     1  1.60e+05   1.60e+05   1.000e+04 
   1    17   1     0     1     1  1.70e+05   1.70e+05   1.000e+04 
   1    18   1     0     1     1  1.80e+05   1.80e+05   1.000e+04 
   1    19   1     0     1     1  1.90e+05   1.90e+05   1.000e+04 
   1    20   1     0     1     1  2.00e+05   2.00e+05   1.000e+04 
   1    21   1     0     1     1  2.10e+05   2.10e+05   1.000e+04 
   1    22   1     0     1     1  2.20e+05   2.20e+05   1.000e+04 
   1    23   1     0     1     1  2.30e+05   2.30e+05   1.000e+04 
   1    24   1     0     1     1  2.40e+05   2.40e+05   1.000e+04 
   1    25   1     0     1     1  2.50e+05   2.50e+05   1.000e+04 
   1    26   1     0     1     1  2.60e+05   2.60e+05   1.000e+04 
   1    27   1     0     1     1  2.70e+05   2.70e+05   1.000e+04 
   1    28   1     0     1     1  2.80e+05   2.80e+05   1.000e+04 
   1    29   1     0     1     1  2.90e+05   2.90e+05   1.000e+04 
   1    30   1     0     1     1  3.00e+05   3.00e+05   1.000e+04 
   1    31   1     0     1     1  3.10e+05   3.10e+05   1.000e+04 
   1    32   1     0     1     1  3.20e+05   3.20e+05   1.000e+04 
   1    33   1     0     1     1  3.30e+05   3.30e+05   1.000e+04 
   1    34   1     0     1     1  3.40e+05   3.40e+05   1.000e+04 
   1    35   1     0     1     1  3.50e+05   3.50e+05   1.000e+04 
   1    36   1     0     1     1  3.60e+05   3.60e+05   1.000e+04 
   1    37   1     0     1     1  3.70e+05   3.70e+05   1.000e+04 
   1    38   1     0     1     1  3.80e+05   3.80e+05   1.000e+04 
   1    39   1     0     1     1  3.90e+05   3.90e+05   1.000e+04 
   1    40   1     0     1     1  4.00e+05   4.00e+05   1.000e+04 
   1    41   1     0     1     1  4.10e+05   4.10e+05   1.000e+04 
   1    42   1     0     1     1  4.20e+05   4.20e+05   1.000e+04 
   1    43   1     0     1     1  4.30e+05   4.30e+05   1.000e+04 
   1    44   1     0     1     1  4.40e+05   4.40e+05   1.000e+04 
   1    45   1     0     1     1  4.50e+05   4.50e+05   1.000e+04 
   1    46   1     0     1     1  4.60e+05   4.60e+05   1.000e+04 
   1    47   1     0     1     1  4.70e+05   4.70e+05   1.000e+04 
   1    48   1     0     1     1  4.80e+05   4.80e+05   1.000e+04 
   1    49   1     0     1     1  4.90e+05   4.90e+05   1.000e+04 
   1    50   1     0     1     1  5.00e+05   5.00e+05   1.000e+04 
   1    51   1     0     1     1  5.10e+05   5.10e+05   1.000e+04 
   1    52   1     0     1     1  5.20e+05   5.20e+05   1.000e+04 
   1    53   1     0     1     1  5.30e+05   5.30e+05   1.000e+04 
   1    54   1     0     1     1  5.40e+05   5.40e+05   1.000e+04 
   1    55   1     0     1     1  5.50e+05   5.50e+05   1.000e+04 
   1    56   1     0     1     1  5.60e+05   5.60e+05   1.000e+04 
   1    57   1     0     1     1  5.70e+05   5.70e+05   1.000e+04 
   1    58   1     0     1     1  5.80e+05   5.80e+05   1.000e+04 
   1    59   1     0     1     1  5.90e+05   5.90e+05   1.000e+04 
   1    60   1     0     1     1  6.00e+05   6.00e+05   1.000e+04 
   1    61   1     0     1     1  6.10e+05   6.10e+05   1.000e+04 
   1    62   1     0     1     1  6.20e+05   6.20e+05   1.000e+04 
   1    63   1     0     1     1  6.30e+05   6.30e+05   1.000e+04 
   1    64   1     0     1     1  6.40e+05   6.40e+05   1.000e+04 
   1    65   1     0     1     1  6.50e+05   6.50e+05   1.000e+04 
   1    66   1     0     1     1  6.60e+05   6.60e+05   1.000e+04 
   1    67   1     0     1     1  6.70e+05   6.70e+05   1.000e+04 
   1    68   1     0     1     1  6.80e+05   6.80e+05   1.000e+04 
   1    69   1     0     1     1  6.90e+05   6.90e+05   1.000e+04 
   1    70   1     0     1     1  7.00e+05   7.00e+05   1.000e+04 
   1    71   1     0     1     1  7.10e+05   7.10e+05   1.000e+04 
   1    72   1     0     1     1  7.20e+05   7.20e+05   1.000e+04 
   1    73   1     0     1     1  7.30e+05   7.30e+05   1.000e+04 
   1    74   1     0     1     1  7.40e+05   7.40e+05   1.000e+04 
   1    75   1     0     1     1  7.50e+05   7.50e+05   1.000e+04 
   1    76   1     0     1     1  7.60e+05   7.60e+05   1.000e+04 
   1    77   1     0     1     1  7.70e+05   7.70e+05   1.000e+04 
   1    78   1     0     1     1  7.80e+05   7.80e+05   1.000e+04 
   1    79   1     0     1     1  7.90e+05   7.90e+05   1.000e+04 
   1    80   1     0     1     1  8.00e+05   8.00e+05   1.000e+04 
   1    81   1     0     1     1  8.10e+05   8.10e+05   1.000e+04 
   1    82   1     0     1     1  8.20e+05   8.20e+05   1.000e+04 
   1    83   1     0     1     1  8.30e+05   8.30e+05   1.000e+04 
   1    84   1     0     1     1  8.40e+05   8.40e+05   1.000e+04 
   1    85   1     0     1     1  8.50e+05   8.50e+05   1.000e+04 
   1    86   1     0     1     1  8.60e+05   8.60e+05   1.000e+04 
   1    87   1     0     1     1  8.70e+05   8.70e+05   1.000e+04 
   1    88   1     0     1     1  8.80e+05   8.80e+05   1.000e+04 
   1    89   1     0     1     1  8.90e+05   8.90e+05   1.000e+04 
   1    90   1     0     1     1  9.00e+05   9.00e+05   1.000e+04 
   1    91   1     0     1     1  9.10e+05   9.10e+05   1.000e+04 
   1    92   1     0     1     1  9.20e+05   9.20e+05   1.000e+04 
   1    93   1     0     1     1  9.30e+05   9.30e+05   1.000e+04 
   1    94   1     0     1     1  9.40e+05   9.40e+05   1.000e+04 
   1    95   1     0     1     1  9.50e+05   9.50e+05   1.000e+04 
   1    96   1     0     1     1  9.60e+05   9.60e+05   1.000e+04 
   1    97   1     0     1     1  9.70e+05   9.70e+05   1.000e+04 
   1    98   1     0     1     1  9.80e+05   9.80e+05   1.000e+04 
   1    99   1     0     1     1  9.90e+05   9.90e+05   1.000e+04 
   1   100   1     0     1     1  1.00e+06   1.00e+06   1.000e+04 
                          
 THE ANALYSIS HAS COMPLETED SUCCESSFULLY
