*Heading
Abaqus/Standard LINEAR DYNAMICS (CIRCUIT BOARD ON BRACKETS)
**
**
** 
** PART INSTANCE: BOARD
**
*Node
      1,          0.7,         -0.5
      2,          1.3,         -0.5
      3,          1.3,          0.5
      4,          0.7,          0.5
      5,       -1.625,         -2.9
      6,       -1.625,       -2.725
      7,         -1.8,       -2.725
      8,         -1.8,         -2.9
      9,          1.8,         -2.9
     10,          1.8,       -2.725
     11,        1.625,       -2.725
     12,        1.625,         -2.9
     13,        1.625,          2.9
     14,        1.625,        2.725
     15,          1.8,        2.725
     16,          1.8,          2.9
     17,         -1.8,          2.9
     18,         -1.8,        2.725
     19,       -1.625,        2.725
     20,       -1.625,          2.9
** ... 868 like lines cut
*Element, type=S4
 1,   1,  29, 197,  42
 2,  29,  30, 198, 197
 3,  30,   2,  31, 198
 4,  42, 197, 199,  41
 5, 197, 198, 200, 199
 6, 198,  31,  32, 200
 7,  41, 199, 201,  40
 8, 199, 200, 202, 201
 9, 200,  32,  33, 202
10,  40, 201, 203,  39
11, 201, 202, 204, 203
12, 202,  33,  34, 204
13,  39, 203, 205,  38
14, 203, 204, 206, 205
15, 204,  34,  35, 206
16,  38, 205,  37,   4
17, 205, 206,  36,  37
18, 206,  35,   3,  36
19, 5, 6, 7, 8
20,  9, 10, 11, 12
** ... 808 like lines cut
*Nset, nset=BOARD, generate
   1,  888,    1
*Elset, elset=BOARD, generate
   1,  828,    1
**
** --------------------------------------------------------
** 
** PART INSTANCE: CHIP
** 
*System
          1.,          0.,        0.15,          1.,          1.,        0.15
*Node
    889,         -0.5,         -0.3,           0.
    890,           0.,         -0.3,           0.
    891,          0.5,         -0.3,           0.
    892,         -0.5,         -0.3,          0.2
    893,           0.,         -0.3,          0.2
    894,          0.5,         -0.3,          0.2
    895,         -0.5,           0.,           0.
    896,           0.,           0.,           0.
    897,          0.5,           0.,           0.
    898,         -0.5,           0.,          0.2
    899,           0.,           0.,          0.2
    900,          0.5,           0.,          0.2
    901,         -0.5,          0.3,           0.
    902,           0.,          0.3,           0.
    903,          0.5,          0.3,           0.
    904,         -0.5,          0.3,          0.2
    905,           0.,          0.3,          0.2
    906,          0.5,          0.3,          0.2
*Element, type=C3D8
829, 895, 896, 899, 898, 889, 890, 893, 892
830, 896, 897, 900, 899, 890, 891, 894, 893
831, 901, 902, 905, 904, 895, 896, 899, 898
832, 902, 903, 906, 905, 896, 897, 900, 899
*Nset, nset=CHIP, generate
 889,  906,    1
*Elset, elset=CHIP, generate
 829,  832,    1
** 
**
** --------------------------------------------------------
**
** PART INSTANCE: SMNT-1   (SURFACE MOUNT #1)
** 
*System
       -0.75,         1.5,          0.,        0.25,         1.5,          0.
*Node
    907,       -0.625,       -0.625,           0.
    908,       -0.375,       -0.625,           0.
    909,       -0.125,       -0.625,           0.
    910,        0.125,       -0.625,           0.
    911,        0.375,       -0.625,           0.
    912,        0.625,       -0.625,           0.
    913,       -0.625,       -0.625,        0.080
    914,       -0.375,       -0.625,        0.080
    915,       -0.125,       -0.625,        0.080
    916,        0.125,       -0.625,        0.080
    917,        0.375,       -0.625,        0.080
    918,        0.625,       -0.625,        0.080
    919,       -0.625,       -0.375,           0.
    920,       -0.375,       -0.375,           0.
    921,       -0.125,       -0.375,           0.
    922,        0.125,       -0.375,           0.
    923,        0.375,       -0.375,           0.
    924,        0.625,       -0.375,           0.
    925,       -0.625,       -0.375,        0.080
    926,       -0.375,       -0.375,        0.080
** ... 52 like lines cut
*Element, type=C3D8I
833, 919, 920, 926, 925, 907, 908, 914, 913
834, 920, 921, 927, 926, 908, 909, 915, 914
835, 921, 922, 928, 927, 909, 910, 916, 915
836, 922, 923, 929, 928, 910, 911, 917, 916
837, 923, 924, 930, 929, 911, 912, 918, 917
838, 931, 932, 938, 937, 919, 920, 926, 925
839, 932, 933, 939, 938, 920, 921, 927, 926
840, 933, 934, 940, 939, 921, 922, 928, 927
841, 934, 935, 941, 940, 922, 923, 929, 928
842, 935, 936, 942, 941, 923, 924, 930, 929
843, 943, 944, 950, 949, 931, 932, 938, 937
844, 944, 945, 951, 950, 932, 933, 939, 938
845, 945, 946, 952, 951, 933, 934, 940, 939
846, 946, 947, 953, 952, 934, 935, 941, 940
847, 947, 948, 954, 953, 935, 936, 942, 941
848, 955, 956, 962, 961, 943, 944, 950, 949
849, 956, 957, 963, 962, 944, 945, 951, 950
850, 957, 958, 964, 963, 945, 946, 952, 951
851, 958, 959, 965, 964, 946, 947, 953, 952
852, 959, 960, 966, 965, 947, 948, 954, 953
** ... 5 like lines cut
*Nset, Nset=SMNT-1, generate
 907,  978,    1
*Elset, Elset=SMNT-1, generate
 833,  857,    1
** 
**  ---------------------------------------------------
** 
** PART INSTANCE: SMNT-2   (SURFACE MOUNT #2)
** 
*System
       -0.75,        -1.5,          0.,        0.25,        -1.5,          0.
*Node
    979,       -0.625,       -0.625,           0.
    980,       -0.375,       -0.625,           0.
    981,       -0.125,       -0.625,           0.
    982,        0.125,       -0.625,           0.
    983,        0.375,       -0.625,           0.
    984,        0.625,       -0.625,           0.
    985,       -0.625,       -0.625,        0.080
    986,       -0.375,       -0.625,        0.080
    987,       -0.125,       -0.625,        0.080
    988,        0.125,       -0.625,        0.080
    989,        0.375,       -0.625,        0.080
    990,        0.625,       -0.625,        0.080
    991,       -0.625,       -0.375,           0.
    992,       -0.375,       -0.375,           0.
    993,       -0.125,       -0.375,           0.
    994,        0.125,       -0.375,           0.
    995,        0.375,       -0.375,           0.
    996,        0.625,       -0.375,           0.
    997,       -0.625,       -0.375,        0.080
    998,       -0.375,       -0.375,        0.080
** ... 52 like lines cut
*Element, type=C3D8I
858,  991,  992,  998,  997,  979,  980,  986,  985
859,  992,  993,  999,  998,  980,  981,  987,  986
860,  993,  994, 1000,  999,  981,  982,  988,  987
861,  994,  995, 1001, 1000,  982,  983,  989,  988
862,  995,  996, 1002, 1001,  983,  984,  990,  989
863, 1003, 1004, 1010, 1009,  991,  992,  998,  997
864, 1004, 1005, 1011, 1010,  992,  993,  999,  998
865, 1005, 1006, 1012, 1011,  993,  994, 1000,  999
866, 1006, 1007, 1013, 1012,  994,  995, 1001, 1000
867, 1007, 1008, 1014, 1013,  995,  996, 1002, 1001
868, 1015, 1016, 1022, 1021, 1003, 1004, 1010, 1009
869, 1016, 1017, 1023, 1022, 1004, 1005, 1011, 1010
870, 1017, 1018, 1024, 1023, 1005, 1006, 1012, 1011
871, 1018, 1019, 1025, 1024, 1006, 1007, 1013, 1012
872, 1019, 1020, 1026, 1025, 1007, 1008, 1014, 1013
873, 1027, 1028, 1034, 1033, 1015, 1016, 1022, 1021
874, 1028, 1029, 1035, 1034, 1016, 1017, 1023, 1022
875, 1029, 1030, 1036, 1035, 1017, 1018, 1024, 1023
876, 1030, 1031, 1037, 1036, 1018, 1019, 1025, 1024
877, 1031, 1032, 1038, 1037, 1019, 1020, 1026, 1025
** ... 5 like lines cut
*Nset, Nset=SMNT-2, generate
  979,  1050,     1
*Elset, Elset=SMNT-2, generate
 858,  882,    1
** 
** --------------------------------------------------------
** 
** PART INSTANCE: BRACKET-1  (RIGHT SIDE)
** 
*System
         2.5,          3.,    -0.7125,         2.5,          2.,    -0.7125
         2.5,          3.,     0.2875
*Node
   1051,      -0.1125,           0.,          4.7
   1052,      -0.2625,           0.,          4.7
   1053,      -0.2625,           0.,         4.85
   1054,      -0.1125,           0.,         4.85
   1055,      -0.2625,           0.,          0.3
   1056,      -0.1125,           0.,          0.3
   1057,      -0.1125,           0.,         0.15
   1058,      -0.2625,           0.,         0.15
   1059,      -0.2625,           0.,        2.575
   1060,      -0.1125,           0.,        2.575
   1061,      -0.1125,           0.,        2.425
   1062,      -0.2625,           0.,        2.425
   1063,           0.,           0.,           0.
   1064,       -0.375,           0.,           0.
   1065,           0.,           0.,           5.
   1066,       -0.375,           0.,           5.
   1067,          0.1,        0.625,          4.3
   1068,        0.275,        0.625,          4.3
   1069,        0.275,        0.625,        4.125
   1070,          0.1,        0.625,        4.125
** ... 310 like lines cut
*Element, type=S4
883, 1051, 1052, 1053, 1054
884, 1055, 1056, 1057, 1058
885, 1059, 1060, 1061, 1062
886, 1056, 1137, 1138, 1057
887, 1057, 1138, 1063, 1079
888, 1125, 1126, 1205, 1061
889, 1126, 1127, 1206, 1205
890, 1127, 1128, 1207, 1206
891, 1128, 1129, 1208, 1207
892, 1129, 1130, 1209, 1208
893, 1130, 1131, 1210, 1209
894, 1131, 1132, 1211, 1210
895, 1132, 1133, 1212, 1211
896, 1133, 1134, 1213, 1212
897, 1134, 1135, 1214, 1213
898, 1135, 1136, 1215, 1214
899, 1136, 1137, 1056, 1215
900, 1061, 1205, 1216, 1062
901, 1205, 1206, 1217, 1216
902, 1206, 1207, 1218, 1217
** ... 270 like lines cut
*Nset, nset=BRACKET-R, generate
 1051,  1380,     1
*Elset, elset=BRACKET-R, generate
  883,  1172,     1
**
** ----------------------------------------------------------------
** 
** PART INSTANCE: BRACKET-2 (LEFT SIDE)
** 
*System
        -2.5,         -3.,    -0.7125,        -2.5,         -2.,    -0.7125
        -2.5,         -3.,     0.2875
*Node
   1381,      -0.2625,  -3.63668e-32,          0.3
   1382,      -0.1125,  -3.63668e-32,          0.3
   1383,      -0.1125,  -3.69291e-32,         0.15
   1384,      -0.2625,  -3.69291e-32,         0.15
   1385,      -0.2625,  -1.93081e-32,         4.85
   1386,      -0.1125,  -1.93081e-32,         4.85
   1387,      -0.1125,  -1.98705e-32,          4.7
   1388,      -0.2625,  -1.98705e-32,          4.7
   1389,      -0.2625,  -2.78375e-32,        2.575
   1390,      -0.1125,  -2.78375e-32,        2.575
   1391,      -0.1125,  -2.83998e-32,        2.425
   1392,      -0.2625,  -2.83998e-32,        2.425
   1393,           0.,  -3.74915e-32,           0.
   1394,       -0.375,  -3.74915e-32,           0.
   1395,           0.,  -1.87458e-32,           5.
   1396,       -0.375,  -1.87458e-32,           5.
   1397,        0.275,        0.625,          0.7
   1398,          0.1,        0.625,          0.7
   1399,          0.1,        0.625,        0.875
   1400,        0.275,        0.625,        0.875
** ... 310 like lines cut
*Element, type=S4
1173, 1381, 1382, 1383, 1384
1174, 1385, 1386, 1387, 1388
1175, 1389, 1390, 1391, 1392
1176, 1382, 1467, 1468, 1383
1177, 1383, 1468, 1393, 1409
1178, 1455, 1456, 1535, 1391
1179, 1456, 1457, 1536, 1535
1180, 1457, 1458, 1537, 1536
1181, 1458, 1459, 1538, 1537
1182, 1459, 1460, 1539, 1538
1183, 1460, 1461, 1540, 1539
1184, 1461, 1462, 1541, 1540
1185, 1462, 1463, 1542, 1541
1186, 1463, 1464, 1543, 1542
1187, 1464, 1465, 1544, 1543
1188, 1465, 1466, 1545, 1544
1189, 1466, 1467, 1382, 1545
1190, 1391, 1535, 1546, 1392
1191, 1535, 1536, 1547, 1546
1192, 1536, 1537, 1548, 1547
** ... 270 like lines cut
*Nset, nset=BRACKET-L, generate
 1381,  1710,     1
*Elset, elset=BRACKET-L, generate
 1173,  1462,     1
**
** ----------------------------------------------------------------------
**
**    DEFINE CHIP STANDOFFS & RIGID BODY CONSTRAINT
**
*SYSTEM
*Nset, Nset=STANDOFF-B, Generate
 1,  4,  1
**
*NODE, NSET=CHIP-M
2000, 1.0, 0.0, 0.25
**
*NCOPY, CHANGE NUMBER = 2000, OLD SET=STANDOFF-B, NEW SET=STANDOFF-T, SHIFT
0.0, 0.0, 0.15
0.0, 0.0, 0.0, 0.0, 0.0, 1.0, 0.0
*ELEMENT, TYPE=B31, ELSET=STANDOFF
1501, 1, 2001
1502, 2, 2002
1503, 3, 2003
1504, 4, 2004
**
*BEAM SECTION, ELSET=STANDOFF, MATERIAL=ALUMINUM, SECTION=CIRC, POISSON=.3
0.010
1.0, 0.0, 0.0
**
**
*Nset, Nset=CHIP-RB, Generate
 889,  906,    1
2001, 2004,    1
**
*RIGID BODY, REF NODE = CHIP-M, TIE NSET = CHIP-RB
** 
** 
** ---------------------------------------------------------------------------
**
**  DEFINE BOLTED CONNECTION BETWEEN BOARD & BRACKET VIA KINEMATIC COUPLING
**
*Nset, nset=BOLT1-M
 11,
*Nset, nset=BOLT2-M
 6,
*Nset, nset=BOLT3-M
 14,
*Nset, nset=BOLT4-M
 19,
*Nset, nset=BOLT1-S
    9,   10,   12, 1401, 1402, 1403, 1404
*Nset, nset=BOLT2-S
    5,    7,    8, 1397, 1398, 1399, 1400
*Nset, nset=BOLT3-S
   13,   15,   16, 1071, 1072, 1073, 1074
*Nset, nset=BOLT4-S
   17,   18,   20, 1067, 1068, 1069, 1070
**
*surface, name=BOLT_KC-1, type=node
BOLT1-S,
*coupling, constraint name=constraint-1, ref node=11, surface=BOLT_KC-1
*kinematic
1, 1 
2, 2 
3, 3 
4, 4 
5, 5 
6, 6 
*surface, name=BOLT_KC-2, type=node
BOLT2-S,
*coupling, constraint name=constraint-2, ref node=6, surface=BOLT_KC-2
*kinematic
1, 1 
2, 2 
3, 3 
4, 4 
5, 5 
6, 6 
*surface, name=BOLT_KC-3, type=node
BOLT3-S,
*coupling, constraint name=constraint-3, ref node=14, surface=BOLT_KC-3
*kinematic
1, 1 
2, 2 
3, 3 
4, 4 
5, 5 
6, 6 
*surface, name=BOLT_KC-4, type=node
BOLT4-S,
*coupling, constraint name=constraint-4, ref node=19, surface=BOLT_KC-4
*kinematic
1, 1 
2, 2 
3, 3 
4, 4 
5, 5 
6, 6 
**
**
** ------------------------------------------------------
**
**    TIE INTERFACES  (surface Mounts)
**
*Elset, elset=board-top_SPOS, generate
  90,  761,    1
*Surface, name=board-top, Type=Element
board-top_SPOS, SPOS
**
*Elset, elset=mount-left_S3, generate
 858,  882,    1
*Surface, name=mount-left, Type=Element
mount-left_S3, S3
**
*Elset, elset=mount-right_S3, generate
 833,  857,    1
*Surface, name=mount-right, Type=Element
mount-right_S3, S3
**
**
*TIE, NAME=TIE-C1, Position Tolerance = 0.001, Adjust = yes
mount-left, board-top   
**
*TIE, NAME=TIE-C2, Position Tolerance = 0.001, Adjust = yes
mount-right, board-top
** 
** -------------------------------------------------------- 
**
**  FIXED BASE GEOMETRIES
**
**  Use *RIGID BODY to create a reference base node for 
**  each of the left and right side bracket supports.  
**  Using a reference base node for imposing Primary and Secondary 
**  Base boundary constraints also allows for more efficient
**  post processing of reaction force data.
**
*SYSTEM
**
*NODE, NSET=BASE-R-M
2100, 0.0,  3.1875, -0.75
*NODE, NSET=BASE-L-M
2200, 0.0, -3.1875, -0.75
*Nset,  Nset=BASE-R, generate
 1051,  1062,     1
*Nset,  Nset=BASE-L, generate
 1381,  1392,     1
**
*RIGID BODY, REF NODE = BASE-R-M, TIE NSET = BASE-R
*RIGID BODY, REF NODE = BASE-L-M, TIE NSET = BASE-L
**
**
** -----------------------------------------------------
**
** SECTION & MATERIAL PROPERTIES
**
** 
*Shell Section, elset=BOARD, material=BOARD, poisson=0.275, OFFSET=SPOS
0.062, 3
**
*Solid Section, elset=CHIP, material=CHIP
1.,
*Solid Section, elset=SMNT-1, material=SMNT
1.,
*Solid Section, elset=SMNT-2, material=SMNT
1.,
*Shell Section, elset=BRACKET-R, material=ALUMINUM, poisson=0.3
0.050, 3
*Shell Section, elset=BRACKET-L, material=ALUMINUM, poisson=0.3
0.050, 3
**
** 
*Material, name=ALUMINUM
*Density
 0.000259,
*Elastic
 1e+07, 0.3
*Damping, Composite=0.02
**
*Material, name=BOARD
*Density
 0.00011,
*Elastic
800000., 0.275
*Damping, Composite=0.05
**
*Material, name=CHIP
*Density
 0.00045,
*Elastic
 100.0, 0.2
**
*Material, name=SMNT
*Density
 0.00017,
*Elastic
 1.2e+06, 0.3
*Damping, Composite=0.03
**
**
** --------------------------------------------------------
**  
**    DEFINE OUTPUT SETS FOR HISTORY DATA 
**
*Nset, Nset=SMNT1-OUT
918, 
*Nset, Nset=SMNT2-OUT
1050,
*Nset, Nset=BOARD-OUT
127, 156, 599
*Nset, Nset=BASE-R-OUT
2100,
*Nset, Nset=BASE-L-OUT
2200,
*Elset, Elset=SMNT1-OUT
845,
*Elset, Elset=SMNT2-OUT
870,
*Elset, Elset=BOARD-OUT
453,
*ELSET, Elset=STANDOFF-OUT
1501,
**
