** ----------------------------------------------------------------
** PART INSTANCE: UPPER_JAW
**
*Element, type=S3R, elset=UPPER_JAW_ALL
1, 84, 63, 64
2, 86, 4, 60
3, 302, 4, 87
4, 363, 10, 90
5, 305, 90, 91
6, 363, 304, 303
7, 362, 91, 92
8, 306, 80, 81
9, 307, 80, 306
10, 307, 8, 80
11, 359, 143, 144
12, 308, 142, 143
13, 48, 142, 2
14, 48, 15, 142
15, 138, 55, 56
16, 353, 137, 3
17, 309, 59, 302
18, 360, 88, 333
19, 360, 333, 354
20, 311, 307, 46
** ... 919 like lines cut
*shellgeneralsection, elset=UPPER_JAW_ALL, material=STEEL
1., 
** ----------------------------------------------------------------
** PART INSTANCE: LOWER_JAW
**
*Element, type=S3R, ELSET=LOWER_JAW_ALL
940, 521, 566, 524
941, 566, 567, 568
942, 568, 567, 523
943, 567, 522, 523
944, 568, 569, 566
945, 569, 524, 566
946, 571, 527, 572
947, 570, 528, 525
948, 571, 526, 527
949, 573, 570, 571
950, 573, 528, 570
951, 572, 573, 571
952, 575, 529, 574
953, 574, 530, 575
954, 575, 528, 529
955, 744, 528, 573
956, 733, 576, 531
957, 742, 734, 572
958, 742, 733, 734
959, 745, 741, 737
** ... 808 like lines cut
*shellgeneralsection, elset=LOWER_JAW_ALL, material=STEEL
1., 
** ----------------------------------------------------------------
** PART INSTANCE: RIVET
**
*Element, type=S3R, elset=RIVET_ALL
1768, 941, 949, 940
1769, 940, 949, 948
1770, 948, 947, 940
1771, 940, 947, 946
1772, 945, 940, 946
1773, 940, 945, 941
1774, 965, 949, 941
1775, 950, 965, 941
1776, 964, 942, 955
1777, 966, 965, 964
1778, 954, 966, 955
1779, 969, 967, 966
1780, 965, 967, 949
1781, 968, 966, 954
1782, 966, 967, 965
1783, 971, 969, 968
1784, 948, 971, 947
1785, 969, 971, 948
1786, 948, 967, 969
1787, 969, 966, 968
** ... 52 like lines cut
*shellgeneralsection, elset=RIVET_ALL, material=STEEL
1., 
***
***  Ref node base node definitions
***
*Nset, nset=UPPER_JAW_REFPT
520
*Nset, nset=LOWER_JAW_REFPT
939
*NODE, NSET=UPPER_JAW_CONN
4500, 0., 0., 0.
*NODE, NSET=LOWER_JAW_CONN
4501, 0., 0., 0.
***
***  Definition of Transformed coordinate systems to define BC
***
**
** Dummy material definition
**
*material, name=STEEL
*elastic
200000., 0.3
*density
8e-9