*Heading
NVH:  Lower control arm: Transient modal dynamic analysis
*Preprint, echo=NO, model=NO, history=NO, contact=NO
** ----------------------------------------------------------------
** 
*Node
      1,        157.5,  -51.1699982,         77.5
      2,   42.4199982,   98.6299973,   41.2746925
      3,   138.107193,  -26.0730019,   77.2611313
      4,       -192.5,  -51.1699982,         77.5
      5,  -103.379997,  -158.587021,         73.5
      6,   42.4199982,   105.512291,        41.25
      7,   42.4199982,   112.394806,        41.25
      8,   42.4199982,   119.277321,        41.25
      9,   42.4199982,   126.159836,        41.25
     10,   42.4199982,   133.042343,        41.25
     11,   42.4199982,   139.924866,        41.25
     12,   42.4199982,   146.807373,        41.25
     13,   42.4199982,   153.689896,        41.25
     14,   42.4199982,   160.572403,        41.25
     15,   42.4199982,    167.45491,        41.25
     16,   42.4199982,   174.337433,        41.25
     17,   42.4199982,    181.21994,        41.25
     18,   42.4199982,   188.102463,        41.25
     19,   42.4199982,    194.98497,        41.25
     20,   42.4199982,   201.867493,        41.25
** ... 7190 like lines cut
*Element, type=S4R
  1,   4, 223,  69,  54
  2, 223, 224,  70,  69
  3, 224, 225,  71,  70
  4, 225, 226,  72,  71
  5, 226, 227,  73,  72
  6, 227, 228,  74,  73
  7, 228, 229,  75,  74
  8, 229, 230,  76,  75
  9, 230, 231,  77,  76
 10, 231, 232,  78,  77
 11, 232, 233,  79,  78
 12, 233, 245, 246,  79
 13,  54,  69,  80,  55
 14,  69,  70,  81,  80
 15,  70,  71,  82,  81
 16,  71,  72,  83,  82
 17,  72,  73,  84,  83
 18,  73,  74,  85,  84
 19,  74,  75,  86,  85
 20,  75,  76,  87,  86
** ... 3842 like lines cut
*Element, type=S3R
847, 947, 935, 940
880, 1025, 1028, 1031
882,  474, 1033,  475
885, 1022,  972, 1033
892, 1031, 1035,  974
911, 1052, 1049, 1044
929, 1059, 1068,  976
939, 1080, 1070,  969
959, 1087, 1081, 1010
979, 1096, 1104, 1111
980, 1107, 1098, 1011
987, 1111, 1007, 1008
990, 1105, 1112, 1119
1000, 1006, 1007, 1121
1021, 1140, 1136, 1003
1022, 1142, 1004, 1005
1037, 1148, 1151, 1146
1074, 1289, 1269, 1223
1086, 1214, 1274, 1248
1447, 1686, 1685, 1672
** ... 126 like lines cut
*Element, type=C3D8
3664, 3889, 3852, 3853, 3908, 4039, 4040, 4041, 4042
3665, 3888, 3889, 3908, 3909, 4043, 4039, 4042, 4044
3666, 3910, 3908, 3853, 3854, 4045, 4042, 4041, 4046
3667, 3896, 3887, 3888, 3909, 4047, 4048, 4043, 4044
3668, 3910, 3895, 3909, 3908, 4045, 4049, 4044, 4042
3669, 3855, 3911, 3910, 3854, 4050, 4051, 4045, 4046
3671, 3887, 3896, 3897, 3886, 4048, 4047, 4052, 4053
3674, 3856, 3857, 3912, 3911, 4054, 4056, 4057, 4051
3675, 3898, 3885, 3886, 3897, 4058, 4059, 4053, 4052
3676, 3910, 3911, 3913, 3894, 4045, 4051, 4060, 4055
3677, 3857, 3858, 3914, 3912, 4056, 4061, 4062, 4057
3678, 3898, 3916, 3884, 3885, 4058, 4063, 4064, 4059
3680, 3911, 3912, 3915, 3913, 4051, 4057, 4066, 4060
3681, 3914, 3858, 3859, 3917, 4062, 4061, 4067, 4068
3682, 3912, 3914, 3919, 3915, 4057, 4062, 4069, 4066
3683, 3918, 3893, 3913, 3915, 4070, 4065, 4060, 4066
3684, 3916, 3920, 3883, 3884, 4063, 4071, 4072, 4064
3685, 3890, 3921, 3916, 3898, 4073, 4074, 4063, 4058
3686, 3892, 3893, 3918, 3923, 4075, 4065, 4070, 4076
3687, 3927, 3917, 3859, 3860, 4077, 4068, 4067, 4078
** ... 1682 like lines cut
*Element, type=C3D6
3670, 3895, 3896, 3909, 4049, 4047, 4044
3672, 3855, 3856, 3911, 4050, 4054, 4051
3673, 3910, 3894, 3895, 4045, 4055, 4049
3679, 3893, 3894, 3913, 4065, 4055, 4060
3693, 3924, 3891, 3892, 4086, 4084, 4075
3714, 3932, 3936, 3938, 4090, 4099, 4103
3715, 3903, 3938, 3902, 4095, 4103, 4110
3728, 3944, 3900, 3901, 4126, 4124, 4121
3763, 4049, 4047, 4044, 4165, 4163, 4160
3765, 4050, 4054, 4051, 4166, 4170, 4167
3766, 4045, 4055, 4049, 4161, 4171, 4165
3772, 4065, 4055, 4060, 4181, 4171, 4176
3786, 4086, 4084, 4075, 4202, 4200, 4191
3807, 4090, 4099, 4103, 4206, 4215, 4219
3808, 4095, 4103, 4110, 4211, 4219, 4226
3821, 4126, 4124, 4121, 4242, 4240, 4237
3856, 4165, 4163, 4160, 4281, 4279, 4276
3858, 4166, 4170, 4167, 4282, 4286, 4283
3859, 4161, 4171, 4165, 4277, 4287, 4281
3865, 4181, 4171, 4176, 4297, 4287, 4292
** ... 40 like lines cut
*Elset, elset=LCA_BJ_SOLID, generate
 3664,  4551,     1
*Elset, elset=LCA_BOLT
 4552, 4553, 4554, 4555, 4556, 4557, 4558, 4559, 4560, 4561, 4562, 4563, 4564, 4565, 4566, 4567
 4568, 4569, 4570, 4571, 4572, 4573, 4574, 4575, 4576, 4577, 4578, 4579, 4580, 4581, 4582, 4583
 4584, 4585, 4586, 4587, 4588, 4589, 4590, 4591, 4592, 4593, 4594, 4595, 4596, 4597, 4598, 4599
 4600, 4601, 4602, 4603, 4604, 4605, 4606, 4607, 4608, 4609, 4610, 4611, 4612, 4613, 4614, 4615
 4616, 4617, 5327, 5328, 5329, 5330, 5331, 5332, 5333, 5334, 5335, 5336, 5337, 5338, 5339, 5340
 5341, 5342, 5343, 5344, 5345, 5346, 5347, 5348, 5349, 5350, 5351, 5352, 5353, 5354, 5355, 5356
 5357, 5358, 5359, 5360, 5361, 5362, 5363, 5364, 5365, 5366, 5367, 5368, 5369, 5370, 5371, 5372
 5373, 5374, 5375, 5376, 5377, 5378, 5379, 5380, 5381, 5382, 5383, 5384, 5385, 5386, 5387, 5388
 5389, 5390, 5391, 5392, 5393, 5394, 5395, 5396, 5397, 5398, 5399, 5400, 5401, 5402, 5403, 5404
 5405, 5406, 5407, 5408, 5409, 5410, 5411, 5412, 5413, 5414, 5415, 5416, 5417, 5418, 5419, 5420
 5421, 5422, 5423, 5424, 5425, 5426, 5427, 5428, 5429, 5430, 5431, 5432, 5433, 5434, 5435, 5436
 5437, 5438, 5439, 5440, 5441, 5442, 5443, 5444, 5445, 5446, 5447, 5448, 5449, 5450, 5451, 5452
 5453, 5454, 5455, 5456, 5457, 5458, 5459, 5460, 5461, 5462, 5463, 5464, 5465, 5466, 5467, 5468
 5469, 5470, 5471, 5472, 5473, 5474, 5475, 5476, 5477, 5478, 5479, 5480, 5481, 5482, 5483, 5484
 5485, 5486, 5487, 5488, 5489, 5490, 5491, 5492, 5493, 5494, 5495, 5496, 5497, 5498, 5499, 5500
 5501, 5502, 5503, 5504, 5505, 5506, 5507, 5508, 5509, 5510, 5511, 5512, 5513, 5514, 5515, 5516
 5517, 5518, 5519, 5520, 5521, 5522, 5523, 5524, 5525, 5526, 5527, 5528, 5529, 5530, 5531, 5532
 5533, 5534, 5535, 5536, 5537, 5538, 5539, 5540, 5541, 5542, 5543, 5544, 5545, 5546, 5547, 5548
 5549, 5550, 5551, 5552, 5553, 5554, 5555, 5556, 5557, 5558, 5559, 5560, 5561, 5562, 5563, 5564
 5565, 5566, 5567, 5568, 5569, 5570, 5571, 5572, 5573, 5574, 5575, 5576, 5577, 5578, 5579, 5580
** ... 12 like lines cut
*Elset, elset=LCA_BUSH, generate
 4738,  4941,     1
*Elset, elset=LCA_BUSH_IN
 4618, 4619, 4620, 4621, 4622, 4623, 4624, 4625, 4626, 4627, 4628, 4629, 4630, 4631, 4632, 4633
 4634, 4635, 4636, 4637, 4638, 4639, 4640, 4641, 4642, 4643, 4644, 4645, 4646, 4647, 4648, 4649
 4650, 4651, 4652, 4653, 4654, 4655, 4656, 4657, 4658, 4659, 4660, 4661, 4662, 4663, 4664, 4665
 4666, 4667, 4668, 4669, 4670, 4671, 4672, 4673, 4674, 4675, 4676, 4677, 4678, 4679, 4680, 4681
 4682, 4683, 4684, 4685, 4686, 4687, 4688, 4689, 4690, 4691, 4692, 4693, 4694, 4695, 4696, 4697
 4698, 4699, 4700, 4701, 4702, 4703, 4704, 4705, 4706, 4707, 4708, 4709, 4710, 4711, 4712, 4713
 4714, 4715, 4716, 4717, 4718, 4719, 4720, 4721, 4722, 4723, 4724, 4725, 4726, 4727, 4728, 4729
 4730, 4731, 4732, 4733, 4734, 4735, 4736, 4737, 5061, 5062, 5063, 5064, 5065, 5066, 5067, 5068
 5069, 5070, 5071, 5072, 5073, 5074, 5075, 5076, 5077, 5078, 5079, 5080, 5081, 5082, 5083, 5084
 5085, 5086, 5087, 5088, 5089, 5090, 5091, 5092, 5093, 5094, 5095, 5096, 5097, 5098, 5099, 5100
*Elset, elset=LCA_LOWER_PANEL
 1897, 1898, 1899, 1900, 1901, 1902, 1903, 1904, 1905, 1906, 1907, 1908, 1909, 1910, 1911, 1912
 1913, 1914, 1915, 1916, 1917, 1918, 1919, 1920, 1921, 1922, 1923, 1924, 1925, 1926, 1927, 1928
 1929, 1930, 1931, 1932, 1933, 1934, 1935, 1936, 1937, 1938, 1939, 1940, 1941, 1942, 1943, 1944
 1945, 1946, 1947, 1948, 1949, 1950, 1951, 1952, 1953, 1954, 1955, 1956, 1957, 1958, 1959, 1960
 1961, 1962, 1963, 1964, 1965, 1966, 1967, 1968, 1969, 1970, 1971, 1972, 1973, 1974, 1975, 1976
 1977, 1978, 1979, 1980, 1981, 1982, 1983, 1984, 1985, 1986, 1987, 1988, 1989, 1990, 1991, 1992
 1993, 1994, 1995, 1996, 1997, 1998, 1999, 2000, 2001, 2002, 2003, 2004, 2005, 2006, 2007, 2008
 2009, 2010, 2011, 2012, 2013, 2014, 2015, 2016, 2017, 2018, 2019, 2020, 2021, 2022, 2023, 2024
 2025, 2026, 2027, 2028, 2029, 2030, 2031, 2032, 2033, 2034, 2035, 2036, 2037, 2038, 2039, 2040
 2041, 2042, 2043, 2044, 2045, 2046, 2047, 2048, 2049, 2050, 2051, 2052, 2053, 2054, 2055, 2056
 2057, 2058, 2059, 2060, 2061, 2062, 2063, 2064, 2065, 2066, 2067, 2068, 2069, 2070, 2071, 2072
 2073, 2074, 2075, 2076, 2077, 2078, 2079, 2080, 2081, 2082, 2083, 2084, 2085, 2086, 2087, 2088
 2089, 2090, 2091, 2092, 2093, 2094, 2095, 2096, 2097, 2098, 2099, 2100, 2101, 2102, 2103, 2104
 2105, 2106, 2107, 2108, 2109, 2110, 2111, 2112, 2113, 2114, 2115, 2116, 2117, 2118, 2119, 2120
 2121, 2122, 2123, 2124, 2125, 2126, 2127, 2128, 2129, 2130, 2131, 2132, 2133, 2134, 2135, 2136
 2137, 2138, 2139, 2140, 2141, 2142, 2143, 2144, 2145, 2146, 2147, 2148, 2149, 2150, 2151, 2152
 2153, 2154, 2155, 2156, 2157, 2158, 2159, 2160, 2161, 2162, 2163, 2164, 2165, 2166, 2167, 2168
 2169, 2170, 2171, 2172, 2173, 2174, 2175, 2176, 2177, 2178, 2179, 2180, 2181, 2182, 2183, 2184
 2185, 2186, 2187, 2188, 2189, 2190, 2191, 2192, 2193, 2194, 2195, 2196, 2197, 2198, 2199, 2200
 2201, 2202, 2203, 2204, 2205, 2206, 2207, 2208, 2209, 2210, 2211, 2212, 2213, 2214, 2215, 2216
** ... 83 like lines cut
*Elset, elset=LCA_UPPER_PANEL
    1,    2,    3,    4,    5,    6,    7,    8,    9,   10,   11,   12,   13,   14,   15,   16
   17,   18,   19,   20,   21,   22,   23,   24,   25,   26,   27,   28,   29,   30,   31,   32
   33,   34,   35,   36,   37,   38,   39,   40,   41,   42,   43,   44,   45,   46,   47,   48
   49,   50,   51,   52,   53,   54,   55,   56,   57,   58,   59,   60,   61,   62,   63,   64
   65,   66,   67,   68,   69,   70,   71,   72,   73,   74,   75,   76,   77,   78,   79,   80
   81,   82,   83,   84,   85,   86,   87,   88,   89,   90,   91,   92,   93,   94,   95,   96
   97,   98,   99,  100,  101,  102,  103,  104,  105,  106,  107,  108,  109,  110,  111,  112
  113,  114,  115,  116,  117,  118,  119,  120,  121,  122,  123,  124,  125,  126,  127,  128
  129,  130,  131,  132,  133,  134,  135,  136,  137,  138,  139,  140,  141,  142,  143,  144
  145,  146,  147,  148,  149,  150,  151,  152,  153,  154,  155,  156,  157,  158,  159,  160
  161,  162,  163,  164,  165,  166,  167,  168,  169,  170,  171,  172,  173,  174,  175,  176
  177,  178,  179,  180,  181,  182,  183,  184,  185,  186,  187,  188,  189,  190,  191,  192
  193,  194,  195,  196,  197,  198,  199,  200,  201,  202,  203,  204,  205,  206,  207,  208
  209,  210,  211,  212,  213,  214,  215,  216,  217,  218,  219,  220,  221,  222,  223,  224
  225,  226,  227,  228,  229,  230,  231,  232,  233,  234,  235,  236,  237,  238,  239,  240
  241,  242,  243,  244,  245,  246,  247,  248,  249,  250,  251,  252,  253,  254,  255,  256
  257,  258,  259,  260,  261,  262,  263,  264,  265,  266,  267,  268,  269,  270,  271,  272
  273,  274,  275,  276,  277,  278,  279,  280,  281,  282,  283,  284,  285,  286,  287,  288
  289,  290,  291,  292,  293,  294,  295,  296,  297,  298,  299,  300,  301,  302,  303,  304
  305,  306,  307,  308,  309,  310,  311,  312,  313,  314,  315,  316,  317,  318,  319,  320
** ... 114 like lines cut
*Elset, elset=LCA_DAMP_BRKT, generate
 5101,  5326,     1
** Section: Section-1-UPPER_PANEL
*Shell General Section, elset=LCA_UPPER_PANEL, material=STEEL
3., 
** Section: Section-2-LOWER_PANEL
*Shell General Section, elset=LCA_LOWER_PANEL, material=STEEL
3., 
** Section: Section-3-BJ_SOLID
*Solid Section, elset=LCA_BJ_SOLID, material=STEEL
,
** Section: Section-4-BOLT
*Solid Section, elset=LCA_BOLT, material=STEEL
,
** Section: Section-5-BUSH_IN
*Solid Section, elset=LCA_BUSH_IN, material=STEEL
,
** Section: Section-6-BUSH
*Solid Section, elset=LCA_BUSH, material=STEEL
,
** Section: Section-7-DAMP_BRKT
*Shell General Section, elset=LCA_DAMP_BRKT, material=STEEL
4., 
*System
*MPC
BEAM, 6366, 6818
BEAM, 6365, 6818
BEAM, 6364, 6818
BEAM, 6363, 6818
BEAM, 6362, 6818
BEAM, 6361, 6818
BEAM, 6360, 6818
BEAM, 6359, 6818
BEAM, 6358, 6818
BEAM, 6357, 6818
BEAM, 6347, 6818
BEAM, 6345, 6818
BEAM, 6344, 6818
BEAM, 6343, 6818
BEAM, 6342, 6818
BEAM, 6341, 6818
BEAM, 6340, 6818
BEAM, 6339, 6818
BEAM, 6338, 6818
BEAM, 6328, 6818
** ... 408 like lines cut
*Nset, nset=BJ
 6815,
*Nset, nset=BUSH1
 6817,
*Nset, nset=BUSH2
 6818,
*Nset, nset=BUSH_WELD_S1
   22, 1197, 1231, 1239, 1248, 1259, 1269, 1270, 1273, 1274, 1275, 1277, 1282, 1289, 1771, 1785
 1787, 1789, 1792, 1799, 1800, 1801, 1802, 1804, 1808, 2180, 2225, 2228, 2281, 2346, 2364, 2572
 2574, 2694, 2695, 2727, 2733, 2736
*Nset, nset=BUSH_WELD_S2
    5,   68, 1174, 1175, 2085, 2086, 2088, 2089, 2092, 2096, 2100, 2102, 2103, 2109, 2110, 2223
 2246, 2359, 2454, 2460, 2600, 2602, 2652, 6228, 6229, 6236, 6239, 6252, 6260, 6261, 6270, 6275
 6277, 6279, 6290, 6308, 6319, 6321
*Nset, nset=DAMPER
 23757,
*Nset, nset=PANEL_WELD1
 2526, 2589, 2616, 2631, 2633, 2659, 2663, 2670, 2677, 2682, 2703, 2718, 2726, 2771, 2774
*Nset, nset=PANEL_WELD2
 2249, 2271, 2290, 2324, 2348, 2351, 2408, 2422, 2447, 2451, 2467, 2471, 2479, 2485, 2510
*Nset, nset=PANEL_WELD3
 2188, 2201, 2204, 2210, 2300, 2384, 2385, 2531, 2537, 2541, 2548, 2558, 2579, 2685, 6246, 6315
*Elset, elset=BOLT1_PRET_BOT, generate
 5519,  5539,     1
*Elset, elset=BOLT1_PRET_TOP, generate
 5477,  5497,     1
*Elset, elset=BOLT2_PRET_BOT, generate
 5699,  5719,     1
*Elset, elset=BOLT2_PRET_TOP
 5603, 5604, 5605, 5606, 5607, 5608, 5609, 5610, 5611, 5612, 5613, 5614, 5762, 5763, 5764, 5765
 5766, 5767, 5768, 5769, 5770
*Elset, elset=BUSH_WELD
 4741, 4743, 4745, 4747, 4749, 4750, 4751, 4752, 4753, 4754, 4758, 4760, 4762, 4764, 4766, 4767
 4768, 4769, 4770, 4771, 4775, 4777, 4779, 4781, 4783, 4784, 4785, 4786, 4787, 4788, 4792, 4794
 4796, 4798, 4800, 4801, 4802, 4803, 4804, 4805, 4809, 4811, 4813, 4815, 4817, 4818, 4819, 4820
 4821, 4822, 4826, 4828, 4830, 4832, 4834, 4835, 4836, 4837, 4838, 4839, 4843, 4845, 4847, 4849
 4851, 4852, 4853, 4854, 4855, 4856, 4860, 4862, 4864, 4866, 4868, 4869, 4870, 4871, 4872, 4873
 4877, 4879, 4881, 4883, 4885, 4886, 4887, 4888, 4889, 4890, 4894, 4896, 4898, 4900, 4902, 4903
 4904, 4905, 4906, 4907, 4911, 4913, 4915, 4917, 4919, 4920, 4921, 4922, 4923, 4924, 4928, 4930
 4932, 4934, 4936, 4937, 4938, 4939, 4940, 4941
*Elset, elset=DAMP_M
 614, 615, 616, 617, 618, 619, 620, 621, 622, 623, 624, 682, 683, 684, 685, 686
 687, 688, 689, 690, 691, 692, 719, 720, 721, 722, 723, 729, 730, 731, 754, 755
 766, 767, 768, 769, 770, 771, 795, 796, 797, 800, 806, 809, 810, 811, 812, 813
 814, 815, 816, 817, 818, 819, 820, 821, 822, 825, 826, 837, 838, 840
*Elset, elset=PANEL_WELD_M1
 1395, 1396, 1398, 1400, 1401, 1402, 1404, 1406, 1407, 1408, 1410, 1412, 1413, 1414, 1416, 1418
 1419, 1420, 1422, 1424, 1425, 1426, 1428, 1430, 1431, 1432, 1434, 1436, 1437, 1438, 1440, 1442
 1467, 1468, 1469, 1470, 1471, 1472, 1473, 1474, 1500, 1501, 1502, 1503, 1504, 1505, 1506, 1507
 1508, 1509, 1511, 1513, 1519, 1521, 1523, 1533, 1534, 1535, 1536, 1537, 1542, 1544, 1546, 1547
 1548, 1549, 1551, 1552, 1553, 1554, 1559, 1560, 1561, 1562, 1564, 1565, 1566, 1571, 1572, 1579
 1580, 1588, 1589, 1597, 1598, 1606, 1608, 1615, 1616, 1623
*Elset, elset=PANEL_WELD_M2
 1645, 1646, 1648, 1650, 1651, 1652, 1654, 1656, 1657, 1658, 1660, 1662, 1663, 1664, 1666, 1668
 1669, 1670, 1672, 1674, 1675, 1676, 1678, 1680, 1681, 1682, 1684, 1686, 1687, 1688, 1690, 1692
 1693, 1694, 1695, 1696, 1697, 1698, 1699, 1700, 1725, 1726, 1727, 1728, 1729, 1730, 1731, 1732
 1733, 1734, 1760, 1761, 1762, 1763, 1764, 1769, 1771, 1777, 1782, 1785, 1788, 1789, 1792, 1796
 1798, 1799, 1804, 1805, 1806, 1807, 1808, 1809, 1810, 1812, 1813, 1816, 1817, 1822, 1823, 1830
 1831, 1837, 1838, 1847, 1848, 1855, 1856, 1863, 1864, 1871
*Elset, elset=PANEL_WELD_M3
 1068, 1069, 1072, 1073, 1077, 1080, 1084, 1087, 1092, 1095, 1099, 1102, 1127, 1130, 1136, 1137
 1174, 1175, 1176, 1177, 1180, 1181, 1182, 1183, 1186, 1188, 1189, 1190, 1191, 1192, 1240, 1241
 1243, 1245, 1246, 1247, 1248, 1249, 1252, 1253, 1254, 1255, 1258, 1259, 1260, 1262, 1265, 1266
 1307, 1308, 1310, 1312, 1313, 1314, 1315, 1316, 1319, 1320, 1321, 1322, 1325, 1326, 1327, 1328
 1371, 1372, 1373, 1374, 1377, 1379, 1380, 1381, 1382, 1383, 1386, 1387, 1388, 1390, 1393, 1394
 4991, 4996, 4999, 5003, 5006, 5009, 5015, 5032, 5033, 5036, 5037, 5041, 5044, 5048, 5054, 5055
*Elset, elset=_PRE_TENSION_TOP1_S2, generate
 5477,  5497,     1
*Elset, elset=_PRE_TENSION_TOP2_S2
 5603, 5604, 5605, 5606, 5607, 5608, 5609, 5610, 5611, 5612, 5613, 5614, 5762, 5763, 5764, 5765
 5766, 5767, 5768, 5769, 5770
*Elset, elset=_PRE_TENSION_BOT1_S1, generate
 5519,  5539,     1
*Elset, elset=_PRE_TENSION_BOT2_S1, generate
 5699,  5719,     1
*Nset, nset=DAMP_S, generate
 6472,  6507,     1
*Nset, nset=RESPONSE
  196,  283, 3986, 5348, 23757
*Elset, elset=_PRE_TENSION_TOP1_S2_1, generate
 5477,  5497,     1
*Elset, elset=_PRE_TENSION_TOP2_S2_1
 5603, 5604, 5605, 5606, 5607, 5608, 5609, 5610, 5611, 5612, 5613, 5614, 5762, 5763, 5764, 5765
 5766, 5767, 5768, 5769, 5770
*Elset, elset=_PRE_TENSION_BOT1_S1_1, generate
 5519,  5539,     1
*Elset, elset=_PRE_TENSION_BOT2_S1_1, generate
 5699,  5719,     1
*Elset, elset=_PRE_TENSION_TOP1_S2_2, generate
 5477,  5497,     1
*Elset, elset=_PRE_TENSION_TOP2_S2_2
 5603, 5604, 5605, 5606, 5607, 5608, 5609, 5610, 5611, 5612, 5613, 5614, 5762, 5763, 5764, 5765
 5766, 5767, 5768, 5769, 5770
*Elset, elset=_PRE_TENSION_BOT1_S1_2, generate
 5519,  5539,     1
*Elset, elset=_PRE_TENSION_BOT2_S1_2, generate
 5699,  5719,     1
*Nset, nset=BUSH_WELD_S1_CNS_
   22, 1197, 1231, 1239, 1248, 1259, 1269, 1270, 1273, 1274, 1275, 1277, 1282, 1289, 1771, 1785
 1787, 1789, 1792, 1799, 1800, 1801, 1802, 1804, 1808, 2180, 2225, 2228, 2281, 2346, 2364, 2572
 2574, 2694, 2695, 2727, 2733, 2736
*Nset, nset=BUSH_WELD_S2_CNS_
    5,   68, 1174, 1175, 2085, 2086, 2088, 2089, 2092, 2096, 2100, 2102, 2103, 2109, 2110, 2223
 2246, 2359, 2454, 2460, 2600, 2602, 2652, 6228, 6229, 6236, 6239, 6252, 6260, 6261, 6270, 6275
 6277, 6279, 6290, 6308, 6319, 6321
*Nset, nset=DAMP_S_CNS_, generate
 6472,  6507,     1
*Nset, nset=PANEL_WELD_S1_CNS_
 2297, 2426, 2433, 2526, 2584, 2589, 2590, 2594, 2595, 2598, 2607, 2616, 2623, 2626, 2631, 2632
 2633, 2634, 2635, 2655, 2659, 2661, 2663, 2668, 2670, 2676, 2677, 2682, 2688, 2696, 2703, 2706
 2708, 2712, 2714, 2718, 2719, 2726, 2728, 2743, 2744, 2757, 2768, 2771, 2774
*Nset, nset=PANEL_WELD_S2_CNS_
 2206, 2230, 2247, 2249, 2251, 2260, 2265, 2271, 2285, 2290, 2291, 2294, 2295, 2324, 2347, 2348
 2351, 2372, 2398, 2402, 2408, 2422, 2427, 2435, 2438, 2439, 2440, 2444, 2446, 2447, 2451, 2463
 2467, 2471, 2473, 2476, 2479, 2482, 2485, 2503, 2507, 2510, 2511, 2515, 2516
*Nset, nset=PANEL_WELD_S3_CNS_
 2178, 2188, 2200, 2201, 2204, 2210, 2217, 2219, 2241, 2255, 2275, 2278, 2300, 2337, 2341, 2363
 2365, 2384, 2385, 2399, 2424, 2529, 2530, 2531, 2537, 2540, 2541, 2542, 2546, 2548, 2549, 2550
 2553, 2556, 2558, 2561, 2576, 2577, 2579, 2685, 6246, 6271, 6299, 6305, 6306, 6311, 6315
*Elset, elset="_FRT BUSH OUT_S3"
 4840, 4841, 4842, 4843, 4844, 4845, 4846, 4847, 4849, 4857, 4858, 4859, 4860, 4861, 4862, 4863
 4864, 4866, 4874, 4875, 4876, 4877, 4878, 4879, 4880, 4881, 4883, 4891, 4892, 4893, 4894, 4895
 4896, 4897, 4898, 4900, 4908, 4909, 4910, 4911, 4912, 4913, 4914, 4915, 4917, 4925, 4926, 4927
 4928, 4929, 4930, 4931, 4932, 4934
*Elset, elset="_FRT BUSH OUT_S5"
 4848, 4850, 4851, 4852, 4853, 4854, 4855, 4856, 4865, 4867, 4868, 4869, 4870, 4871, 4872, 4873
 4882, 4884, 4885, 4886, 4887, 4888, 4889, 4890, 4899, 4901, 4902, 4903, 4904, 4905, 4906, 4907
 4916, 4918, 4919, 4920, 4921, 4922, 4923, 4924, 4933, 4935, 4936, 4937, 4938, 4939, 4940, 4941
*Elset, elset="_RR BUSH OUT_S3"
 4738, 4739, 4740, 4741, 4742, 4743, 4744, 4745, 4747, 4755, 4756, 4757, 4758, 4759, 4760, 4761
 4762, 4764, 4772, 4773, 4774, 4775, 4776, 4777, 4778, 4779, 4781, 4789, 4790, 4791, 4792, 4793
 4794, 4795, 4796, 4798, 4806, 4807, 4808, 4809, 4810, 4811, 4812, 4813, 4815, 4823, 4824, 4825
 4826, 4827, 4828, 4829, 4830, 4832
*Elset, elset="_RR BUSH OUT_S5"
 4746, 4748, 4749, 4750, 4751, 4752, 4753, 4754, 4763, 4765, 4766, 4767, 4768, 4769, 4770, 4771
 4780, 4782, 4783, 4784, 4785, 4786, 4787, 4788, 4797, 4799, 4800, 4801, 4802, 4803, 4804, 4805
 4814, 4816, 4817, 4818, 4819, 4820, 4821, 4822, 4831, 4833, 4834, 4835, 4836, 4837, 4838, 4839
*Elset, elset="_FRT BUSH IN_S4"
 4618, 4619, 4620, 4624, 4625, 4626, 4627, 4628, 4629, 4630, 4634, 4635, 4636, 4637, 4638, 4639
 4640, 4644, 4645, 4646, 4647, 4648, 4649, 4650, 4654, 4655, 4656, 4657, 4658, 4659, 4660, 4664
 4665, 4666, 4667, 4668, 4669, 4670, 4674, 4675, 4676, 4677, 5081, 5082, 5083, 5087, 5088, 5089
 5090, 5091, 5092, 5093, 5097, 5098, 5099, 5100
*Elset, elset="_FRT BUSH IN_S6"
 4621, 4622, 4623, 4631, 4632, 4633, 4641, 4642, 4643, 4651, 4652, 4653, 4661, 4662, 4663, 4671
 4672, 4673, 5084, 5085, 5086, 5094, 5095, 5096
*Elset, elset="_RR BUSH IN_S4"
 4678, 4679, 4680, 4684, 4685, 4686, 4687, 4688, 4689, 4690, 4694, 4695, 4696, 4697, 4698, 4699
 4700, 4704, 4705, 4706, 4707, 4708, 4709, 4710, 4714, 4715, 4716, 4717, 4718, 4719, 4720, 4724
 4725, 4726, 4727, 4728, 4729, 4730, 4734, 4735, 4736, 4737, 5061, 5062, 5063, 5067, 5068, 5069
 5070, 5071, 5072, 5073, 5077, 5078, 5079, 5080
*Elset, elset="_RR BUSH IN_S6"
 4681, 4682, 4683, 4691, 4692, 4693, 4701, 4702, 4703, 4711, 4712, 4713, 4721, 4722, 4723, 4731
 4732, 4733, 5064, 5065, 5066, 5074, 5075, 5076
*Elset, elset="_FRT BUSH WELD M_S3"
 4851, 4852, 4853, 4854, 4855, 4856, 4868, 4869, 4870, 4871, 4872, 4873, 4885, 4886, 4887, 4888
 4889, 4890, 4902, 4903, 4904, 4905, 4906, 4907, 4919, 4920, 4921, 4922, 4923, 4924, 4936, 4937
 4938, 4939, 4940, 4941
*Elset, elset="_FRT BUSH WELD M_S5"
 4843, 4845, 4847, 4849, 4860, 4862, 4864, 4866, 4877, 4879, 4881, 4883, 4894, 4896, 4898, 4900
 4911, 4913, 4915, 4917, 4928, 4930, 4932, 4934
*Elset, elset="_RR BUSH WELD M_S3"
 4749, 4750, 4751, 4752, 4753, 4754, 4766, 4767, 4768, 4769, 4770, 4771, 4783, 4784, 4785, 4786
 4787, 4788, 4800, 4801, 4802, 4803, 4804, 4805, 4817, 4818, 4819, 4820, 4821, 4822, 4834, 4835
 4836, 4837, 4838, 4839
*Elset, elset="_RR BUSH WELD M_S5"
 4741, 4743, 4745, 4747, 4758, 4760, 4762, 4764, 4775, 4777, 4779, 4781, 4792, 4794, 4796, 4798
 4809, 4811, 4813, 4815, 4826, 4828, 4830, 4832
*Elset, elset="_DAMPER PLATE_SNEG"
 614, 615, 616, 617, 618, 619, 620, 621, 622, 623, 624, 682, 683, 684, 685, 686
 687, 688, 689, 690, 691, 692, 719, 720, 721, 722, 723, 729, 730, 731, 754, 755
 766, 767, 768, 769, 770, 771, 795, 796, 797, 800, 806, 809, 810, 811, 812, 813
 814, 815, 816, 817, 818, 819, 820, 821, 822, 825, 826, 837, 838, 840
*Elset, elset="_UPPER BOLT S1_SNEG", generate
 850,  859,    1
*Elset, elset="_UPPER BOLT S2_SNEG", generate
 1058,  1067,     1
*Elset, elset="_UPPER BOLT S1_1_SPOS", generate
 850,  859,    1
*Elset, elset="_UPPER BOLT S2_1_SPOS", generate
 1058,  1067,     1
*Elset, elset="_UPPER BOLT M1_S1", generate
 4552,  4563,     1
*Elset, elset="_UPPER BOLT M2_S1", generate
 4585,  4596,     1
*Elset, elset="_UPPER BOLT M1_1_S1", generate
 3748,  3756,     1
*Elset, elset="_UPPER BOLT M2_1_S1", generate
 3739,  3747,     1
*Elset, elset="_LOWER BOLT M1_1_S2", generate
 4120,  4128,     1
*Elset, elset="_LOWER BOLT M2_1_S2", generate
 4111,  4119,     1
*Elset, elset="_LOWER BOLT M1_S2", generate
 5327,  5338,     1
*Elset, elset="_LOWER BOLT M2_S2", generate
 5360,  5371,     1
*Elset, elset="_LOWER BOLT S1_1_SPOS", generate
 3331,  3339,     1
*Elset, elset="_LOWER BOLT S2_1_SPOS", generate
 3322,  3330,     1
*Elset, elset="_LOWER BOLT S1_SNEG", generate
 3331,  3339,     1
*Elset, elset="_LOWER BOLT S2_SNEG", generate
 3322,  3330,     1
*Elset, elset="_PANEL WELD1_SNEG"
 1395, 1396, 1398, 1400, 1401, 1402, 1404, 1406, 1407, 1408, 1410, 1412, 1413, 1414, 1416, 1418
 1419, 1420, 1422, 1424, 1425, 1426, 1428, 1430, 1431, 1432, 1434, 1436, 1437, 1438, 1440, 1442
 1467, 1468, 1469, 1470, 1471, 1472, 1473, 1474, 1500, 1501, 1502, 1503, 1504, 1505, 1506, 1507
 1508, 1509, 1511, 1513, 1519, 1521, 1523, 1533, 1534, 1535, 1536, 1537, 1542, 1544, 1546, 1547
 1548, 1549, 1551, 1552, 1553, 1554, 1559, 1560, 1561, 1562, 1564, 1565, 1566, 1571, 1572, 1579
 1580, 1588, 1589, 1597, 1598, 1606, 1608, 1615, 1616, 1623
*Elset, elset="_PANEL WELD2_SNEG"
 1645, 1646, 1648, 1650, 1651, 1652, 1654, 1656, 1657, 1658, 1660, 1662, 1663, 1664, 1666, 1668
 1669, 1670, 1672, 1674, 1675, 1676, 1678, 1680, 1681, 1682, 1684, 1686, 1687, 1688, 1690, 1692
 1693, 1694, 1695, 1696, 1697, 1698, 1699, 1700, 1725, 1726, 1727, 1728, 1729, 1730, 1731, 1732
 1733, 1734, 1760, 1761, 1762, 1763, 1764, 1769, 1771, 1777, 1782, 1785, 1788, 1789, 1792, 1796
 1798, 1799, 1804, 1805, 1806, 1807, 1808, 1809, 1810, 1812, 1813, 1816, 1817, 1822, 1823, 1830
 1831, 1837, 1838, 1847, 1848, 1855, 1856, 1863, 1864, 1871
*Elset, elset="_PANEL WELD3_SNEG"
 1068, 1069, 1072, 1073, 1077, 1080, 1084, 1087, 1092, 1095, 1099, 1102, 1127, 1130, 1136, 1137
 1174, 1175, 1176, 1177, 1180, 1181, 1182, 1183, 1186, 1188, 1189, 1190, 1191, 1192, 1240, 1241
 1243, 1245, 1246, 1247, 1248, 1249, 1252, 1253, 1254, 1255, 1258, 1259, 1260, 1262, 1265, 1266
 1307, 1308, 1310, 1312, 1313, 1314, 1315, 1316, 1319, 1320, 1321, 1322, 1325, 1326, 1327, 1328
 1371, 1372, 1373, 1374, 1377, 1379, 1380, 1381, 1382, 1383, 1386, 1387, 1388, 1390, 1393, 1394
 4991, 4996, 4999, 5003, 5006, 5009, 5015, 5032, 5033, 5036, 5037, 5041, 5044, 5048, 5054, 5055
*Elset, elset=_PRE_TENSION_TOP1_S2_3, generate
 5477,  5497,     1
*Elset, elset=_PRE_TENSION_TOP2_S2_3
 5603, 5604, 5605, 5606, 5607, 5608, 5609, 5610, 5611, 5612, 5613, 5614, 5762, 5763, 5764, 5765
 5766, 5767, 5768, 5769, 5770
*Elset, elset=_PRE_TENSION_BOT1_S1_3, generate
 5519,  5539,     1
*Elset, elset=_PRE_TENSION_BOT2_S1_3, generate
 5699,  5719,     1
*Nset, nset=BUSH_WELD_S1_CNS__CNS_
   22, 1197, 1231, 1239, 1248, 1259, 1269, 1270, 1273, 1274, 1275, 1277, 1282, 1289, 1771, 1785
 1787, 1789, 1792, 1799, 1800, 1801, 1802, 1804, 1808, 2180, 2225, 2228, 2281, 2346, 2364, 2572
 2574, 2694, 2695, 2727, 2733, 2736
*Nset, nset=BUSH_WELD_S2_CNS__CNS_
    5,   68, 1174, 1175, 2085, 2086, 2088, 2089, 2092, 2096, 2100, 2102, 2103, 2109, 2110, 2223
 2246, 2359, 2454, 2460, 2600, 2602, 2652, 6228, 6229, 6236, 6239, 6252, 6260, 6261, 6270, 6275
 6277, 6279, 6290, 6308, 6319, 6321
*Nset, nset=DAMP_S_CNS__CNS_, generate
 6472,  6507,     1
*Nset, nset=PANEL_WELD_S1_CNS__CNS_
 2297, 2426, 2433, 2526, 2584, 2589, 2590, 2594, 2595, 2598, 2607, 2616, 2623, 2626, 2631, 2632
 2633, 2634, 2635, 2655, 2659, 2661, 2663, 2668, 2670, 2676, 2677, 2682, 2688, 2696, 2703, 2706
 2708, 2712, 2714, 2718, 2719, 2726, 2728, 2743, 2744, 2757, 2768, 2771, 2774
*Nset, nset=PANEL_WELD_S2_CNS__CNS_
 2206, 2230, 2247, 2249, 2251, 2260, 2265, 2271, 2285, 2290, 2291, 2294, 2295, 2324, 2347, 2348
 2351, 2372, 2398, 2402, 2408, 2422, 2427, 2435, 2438, 2439, 2440, 2444, 2446, 2447, 2451, 2463
 2467, 2471, 2473, 2476, 2479, 2482, 2485, 2503, 2507, 2510, 2511, 2515, 2516
*Nset, nset=PANEL_WELD_S3_CNS__CNS_
 2178, 2188, 2200, 2201, 2204, 2210, 2217, 2219, 2241, 2255, 2275, 2278, 2300, 2337, 2341, 2363
 2365, 2384, 2385, 2399, 2424, 2529, 2530, 2531, 2537, 2540, 2541, 2542, 2546, 2548, 2549, 2550
 2553, 2556, 2558, 2561, 2576, 2577, 2579, 2685, 6246, 6271, 6299, 6305, 6306, 6311, 6315
*Elset, elset="_FRT BUSH OUT_S3"
 4840, 4841, 4842, 4843, 4844, 4845, 4846, 4847, 4849, 4857, 4858, 4859, 4860, 4861, 4862, 4863
 4864, 4866, 4874, 4875, 4876, 4877, 4878, 4879, 4880, 4881, 4883, 4891, 4892, 4893, 4894, 4895
 4896, 4897, 4898, 4900, 4908, 4909, 4910, 4911, 4912, 4913, 4914, 4915, 4917, 4925, 4926, 4927
 4928, 4929, 4930, 4931, 4932, 4934
*Elset, elset="_FRT BUSH OUT_S5"
 4848, 4850, 4851, 4852, 4853, 4854, 4855, 4856, 4865, 4867, 4868, 4869, 4870, 4871, 4872, 4873
 4882, 4884, 4885, 4886, 4887, 4888, 4889, 4890, 4899, 4901, 4902, 4903, 4904, 4905, 4906, 4907
 4916, 4918, 4919, 4920, 4921, 4922, 4923, 4924, 4933, 4935, 4936, 4937, 4938, 4939, 4940, 4941
*Surface, type=ELEMENT, name="FRT BUSH OUT"
"_FRT BUSH OUT_S3", S3
"_FRT BUSH OUT_S5", S5
*Elset, elset="_RR BUSH OUT_S3"
 4738, 4739, 4740, 4741, 4742, 4743, 4744, 4745, 4747, 4755, 4756, 4757, 4758, 4759, 4760, 4761
 4762, 4764, 4772, 4773, 4774, 4775, 4776, 4777, 4778, 4779, 4781, 4789, 4790, 4791, 4792, 4793
 4794, 4795, 4796, 4798, 4806, 4807, 4808, 4809, 4810, 4811, 4812, 4813, 4815, 4823, 4824, 4825
 4826, 4827, 4828, 4829, 4830, 4832
*Elset, elset="_RR BUSH OUT_S5"
 4746, 4748, 4749, 4750, 4751, 4752, 4753, 4754, 4763, 4765, 4766, 4767, 4768, 4769, 4770, 4771
 4780, 4782, 4783, 4784, 4785, 4786, 4787, 4788, 4797, 4799, 4800, 4801, 4802, 4803, 4804, 4805
 4814, 4816, 4817, 4818, 4819, 4820, 4821, 4822, 4831, 4833, 4834, 4835, 4836, 4837, 4838, 4839
*Surface, type=ELEMENT, name="RR BUSH OUT"
"_RR BUSH OUT_S3", S3
"_RR BUSH OUT_S5", S5
*Elset, elset="_FRT BUSH IN_S4"
 4618, 4619, 4620, 4624, 4625, 4626, 4627, 4628, 4629, 4630, 4634, 4635, 4636, 4637, 4638, 4639
 4640, 4644, 4645, 4646, 4647, 4648, 4649, 4650, 4654, 4655, 4656, 4657, 4658, 4659, 4660, 4664
 4665, 4666, 4667, 4668, 4669, 4670, 4674, 4675, 4676, 4677, 5081, 5082, 5083, 5087, 5088, 5089
 5090, 5091, 5092, 5093, 5097, 5098, 5099, 5100
*Elset, elset="_FRT BUSH IN_S6"
 4621, 4622, 4623, 4631, 4632, 4633, 4641, 4642, 4643, 4651, 4652, 4653, 4661, 4662, 4663, 4671
 4672, 4673, 5084, 5085, 5086, 5094, 5095, 5096
*Surface, type=ELEMENT, name="FRT BUSH IN"
"_FRT BUSH IN_S4", S4
"_FRT BUSH IN_S6", S6
*Elset, elset="_RR BUSH IN_S4"
 4678, 4679, 4680, 4684, 4685, 4686, 4687, 4688, 4689, 4690, 4694, 4695, 4696, 4697, 4698, 4699
 4700, 4704, 4705, 4706, 4707, 4708, 4709, 4710, 4714, 4715, 4716, 4717, 4718, 4719, 4720, 4724
 4725, 4726, 4727, 4728, 4729, 4730, 4734, 4735, 4736, 4737, 5061, 5062, 5063, 5067, 5068, 5069
 5070, 5071, 5072, 5073, 5077, 5078, 5079, 5080
*Elset, elset="_RR BUSH IN_S6"
 4681, 4682, 4683, 4691, 4692, 4693, 4701, 4702, 4703, 4711, 4712, 4713, 4721, 4722, 4723, 4731
 4732, 4733, 5064, 5065, 5066, 5074, 5075, 5076
*Surface, type=ELEMENT, name="RR BUSH IN"
"_RR BUSH IN_S4", S4
"_RR BUSH IN_S6", S6
*Elset, elset="_FRT BUSH WELD M_S3"
 4851, 4852, 4853, 4854, 4855, 4856, 4868, 4869, 4870, 4871, 4872, 4873, 4885, 4886, 4887, 4888
 4889, 4890, 4902, 4903, 4904, 4905, 4906, 4907, 4919, 4920, 4921, 4922, 4923, 4924, 4936, 4937
 4938, 4939, 4940, 4941
*Elset, elset="_FRT BUSH WELD M_S5"
 4843, 4845, 4847, 4849, 4860, 4862, 4864, 4866, 4877, 4879, 4881, 4883, 4894, 4896, 4898, 4900
 4911, 4913, 4915, 4917, 4928, 4930, 4932, 4934
*Surface, type=ELEMENT, name="FRT BUSH WELD M"
"_FRT BUSH WELD M_S3", S3
"_FRT BUSH WELD M_S5", S5
*Elset, elset="_RR BUSH WELD M_S3"
 4749, 4750, 4751, 4752, 4753, 4754, 4766, 4767, 4768, 4769, 4770, 4771, 4783, 4784, 4785, 4786
 4787, 4788, 4800, 4801, 4802, 4803, 4804, 4805, 4817, 4818, 4819, 4820, 4821, 4822, 4834, 4835
 4836, 4837, 4838, 4839
*Elset, elset="_RR BUSH WELD M_S5"
 4741, 4743, 4745, 4747, 4758, 4760, 4762, 4764, 4775, 4777, 4779, 4781, 4792, 4794, 4796, 4798
 4809, 4811, 4813, 4815, 4826, 4828, 4830, 4832
*Surface, type=ELEMENT, name="RR BUSH WELD M"
"_RR BUSH WELD M_S3", S3
"_RR BUSH WELD M_S5", S5
*Elset, elset="_DAMPER PLATE_SNEG"
 614, 615, 616, 617, 618, 619, 620, 621, 622, 623, 624, 682, 683, 684, 685, 686
 687, 688, 689, 690, 691, 692, 719, 720, 721, 722, 723, 729, 730, 731, 754, 755
 766, 767, 768, 769, 770, 771, 795, 796, 797, 800, 806, 809, 810, 811, 812, 813
 814, 815, 816, 817, 818, 819, 820, 821, 822, 825, 826, 837, 838, 840
*Surface, type=ELEMENT, name="DAMPER PLATE"
"_DAMPER PLATE_SNEG", SNEG
*Elset, elset="_UPPER BOLT S1_SNEG", generate
 850,  859,    1
*Surface, type=ELEMENT, name="UPPER BOLT S1"
"_UPPER BOLT S1_SNEG", SNEG
*Elset, elset="_UPPER BOLT S2_SNEG", generate
 1058,  1067,     1
*Surface, type=ELEMENT, name="UPPER BOLT S2"
"_UPPER BOLT S2_SNEG", SNEG
*Elset, elset="_UPPER BOLT S1_1_SPOS", generate
 850,  859,    1
*Surface, type=ELEMENT, name="UPPER BOLT S1_1"
"_UPPER BOLT S1_1_SPOS", SPOS
*Elset, elset="_UPPER BOLT S2_1_SPOS", generate
 1058,  1067,     1
*Surface, type=ELEMENT, name="UPPER BOLT S2_1"
"_UPPER BOLT S2_1_SPOS", SPOS
*Elset, elset="_UPPER BOLT M1_S1", generate
 4552,  4563,     1
*Surface, type=ELEMENT, name="UPPER BOLT M1"
"_UPPER BOLT M1_S1", S1
*Elset, elset="_UPPER BOLT M2_S1", generate
 4585,  4596,     1
*Surface, type=ELEMENT, name="UPPER BOLT M2"
"_UPPER BOLT M2_S1", S1
*Elset, elset="_UPPER BOLT M1_1_S1", generate
 3748,  3756,     1
*Surface, type=ELEMENT, name="UPPER BOLT M1_1"
"_UPPER BOLT M1_1_S1", S1
*Elset, elset="_UPPER BOLT M2_1_S1", generate
 3739,  3747,     1
*Surface, type=ELEMENT, name="UPPER BOLT M2_1"
"_UPPER BOLT M2_1_S1", S1
*Elset, elset="_LOWER BOLT M1_1_S2", generate
 4120,  4128,     1
*Surface, type=ELEMENT, name="LOWER BOLT M1_1"
"_LOWER BOLT M1_1_S2", S2
*Elset, elset="_LOWER BOLT M2_1_S2", generate
 4111,  4119,     1
*Surface, type=ELEMENT, name="LOWER BOLT M2_1"
"_LOWER BOLT M2_1_S2", S2
*Elset, elset="_LOWER BOLT M1_S2", generate
 5327,  5338,     1
*Surface, type=ELEMENT, name="LOWER BOLT M1"
"_LOWER BOLT M1_S2", S2
*Elset, elset="_LOWER BOLT M2_S2", generate
 5360,  5371,     1
*Surface, type=ELEMENT, name="LOWER BOLT M2"
"_LOWER BOLT M2_S2", S2
*Elset, elset="_LOWER BOLT S1_1_SPOS", generate
 3331,  3339,     1
*Surface, type=ELEMENT, name="LOWER BOLT S1_1"
"_LOWER BOLT S1_1_SPOS", SPOS
*Elset, elset="_LOWER BOLT S2_1_SPOS", generate
 3322,  3330,     1
*Surface, type=ELEMENT, name="LOWER BOLT S2_1"
"_LOWER BOLT S2_1_SPOS", SPOS
*Elset, elset="_LOWER BOLT S1_SNEG", generate
 3331,  3339,     1
*Surface, type=ELEMENT, name="LOWER BOLT S1"
"_LOWER BOLT S1_SNEG", SNEG
*Elset, elset="_LOWER BOLT S2_SNEG", generate
 3322,  3330,     1
*Surface, type=ELEMENT, name="LOWER BOLT S2"
"_LOWER BOLT S2_SNEG", SNEG
*Elset, elset="_PANEL WELD1_SNEG"
 1395, 1396, 1398, 1400, 1401, 1402, 1404, 1406, 1407, 1408, 1410, 1412, 1413, 1414, 1416, 1418
 1419, 1420, 1422, 1424, 1425, 1426, 1428, 1430, 1431, 1432, 1434, 1436, 1437, 1438, 1440, 1442
 1467, 1468, 1469, 1470, 1471, 1472, 1473, 1474, 1500, 1501, 1502, 1503, 1504, 1505, 1506, 1507
 1508, 1509, 1511, 1513, 1519, 1521, 1523, 1533, 1534, 1535, 1536, 1537, 1542, 1544, 1546, 1547
 1548, 1549, 1551, 1552, 1553, 1554, 1559, 1560, 1561, 1562, 1564, 1565, 1566, 1571, 1572, 1579
 1580, 1588, 1589, 1597, 1598, 1606, 1608, 1615, 1616, 1623
*Surface, type=ELEMENT, name="PANEL WELD1"
"_PANEL WELD1_SNEG", SNEG
*Elset, elset="_PANEL WELD2_SNEG"
 1645, 1646, 1648, 1650, 1651, 1652, 1654, 1656, 1657, 1658, 1660, 1662, 1663, 1664, 1666, 1668
 1669, 1670, 1672, 1674, 1675, 1676, 1678, 1680, 1681, 1682, 1684, 1686, 1687, 1688, 1690, 1692
 1693, 1694, 1695, 1696, 1697, 1698, 1699, 1700, 1725, 1726, 1727, 1728, 1729, 1730, 1731, 1732
 1733, 1734, 1760, 1761, 1762, 1763, 1764, 1769, 1771, 1777, 1782, 1785, 1788, 1789, 1792, 1796
 1798, 1799, 1804, 1805, 1806, 1807, 1808, 1809, 1810, 1812, 1813, 1816, 1817, 1822, 1823, 1830
 1831, 1837, 1838, 1847, 1848, 1855, 1856, 1863, 1864, 1871
*Surface, type=ELEMENT, name="PANEL WELD2"
"_PANEL WELD2_SNEG", SNEG
*Elset, elset="_PANEL WELD3_SNEG"
 1068, 1069, 1072, 1073, 1077, 1080, 1084, 1087, 1092, 1095, 1099, 1102, 1127, 1130, 1136, 1137
 1174, 1175, 1176, 1177, 1180, 1181, 1182, 1183, 1186, 1188, 1189, 1190, 1191, 1192, 1240, 1241
 1243, 1245, 1246, 1247, 1248, 1249, 1252, 1253, 1254, 1255, 1258, 1259, 1260, 1262, 1265, 1266
 1307, 1308, 1310, 1312, 1313, 1314, 1315, 1316, 1319, 1320, 1321, 1322, 1325, 1326, 1327, 1328
 1371, 1372, 1373, 1374, 1377, 1379, 1380, 1381, 1382, 1383, 1386, 1387, 1388, 1390, 1393, 1394
 4991, 4996, 4999, 5003, 5006, 5009, 5015, 5032, 5033, 5036, 5037, 5041, 5044, 5048, 5054, 5055
*Surface, type=ELEMENT, name="PANEL WELD3"
"_PANEL WELD3_SNEG", SNEG
*Elset, elset=_PRE_TENSION_TOP1_S2_4, generate
 5477,  5497,     1
*Surface, type=ELEMENT, name=PRE_TENSION_TOP1
_PRE_TENSION_TOP1_S2_4, S2
*Elset, elset=_PRE_TENSION_TOP2_S2_4
 5603, 5604, 5605, 5606, 5607, 5608, 5609, 5610, 5611, 5612, 5613, 5614, 5762, 5763, 5764, 5765
 5766, 5767, 5768, 5769, 5770
*Surface, type=ELEMENT, name=PRE_TENSION_TOP2
_PRE_TENSION_TOP2_S2_4, S2
*Elset, elset=_PRE_TENSION_BOT1_S1_4, generate
 5519,  5539,     1
*Surface, type=ELEMENT, name=PRE_TENSION_BOT1
_PRE_TENSION_BOT1_S1_4, S1
*Elset, elset=_PRE_TENSION_BOT2_S1_4, generate
 5699,  5719,     1
*Surface, type=ELEMENT, name=PRE_TENSION_BOT2
_PRE_TENSION_BOT2_S1_4, S1
*Elset, elset=_CP-35-LCA_S4
 4618, 4619, 4620, 4624, 4625, 4626, 4627, 4628, 4629, 4630, 4634, 4635, 4636, 4637, 4638, 4639
 4640, 4644, 4645, 4646, 4647, 4648, 4649, 4650, 4654, 4655, 4656, 4657, 4658, 4659, 4660, 4664
 4665, 4666, 4667, 4668, 4669, 4670, 4674, 4675, 4676, 4677, 5081, 5082, 5083, 5087, 5088, 5089
 5090, 5091, 5092, 5093, 5097, 5098, 5099, 5100
*Elset, elset=_CP-35-LCA_S6
 4621, 4622, 4623, 4631, 4632, 4633, 4641, 4642, 4643, 4651, 4652, 4653, 4661, 4662, 4663, 4671
 4672, 4673, 5084, 5085, 5086, 5094, 5095, 5096
*Surface, type=ELEMENT, name=FRT_BUSH_IN
_CP-35-LCA_S4, S4
_CP-35-LCA_S6, S6
*Elset, elset=_CP-36-LCA_S3
 4840, 4841, 4842, 4843, 4844, 4845, 4846, 4847, 4849, 4857, 4858, 4859, 4860, 4861, 4862, 4863
 4864, 4866, 4874, 4875, 4876, 4877, 4878, 4879, 4880, 4881, 4883, 4891, 4892, 4893, 4894, 4895
 4896, 4897, 4898, 4900, 4908, 4909, 4910, 4911, 4912, 4913, 4914, 4915, 4917, 4925, 4926, 4927
 4928, 4929, 4930, 4931, 4932, 4934
*Elset, elset=_CP-36-LCA_S5
 4848, 4850, 4851, 4852, 4853, 4854, 4855, 4856, 4865, 4867, 4868, 4869, 4870, 4871, 4872, 4873
 4882, 4884, 4885, 4886, 4887, 4888, 4889, 4890, 4899, 4901, 4902, 4903, 4904, 4905, 4906, 4907
 4916, 4918, 4919, 4920, 4921, 4922, 4923, 4924, 4933, 4935, 4936, 4937, 4938, 4939, 4940, 4941
*Surface, type=ELEMENT, name=FRT_BUSH_OUT
_CP-36-LCA_S3, S3
_CP-36-LCA_S5, S5
*Elset, elset=_CP-37-LCA_S4
 4678, 4679, 4680, 4684, 4685, 4686, 4687, 4688, 4689, 4690, 4694, 4695, 4696, 4697, 4698, 4699
 4700, 4704, 4705, 4706, 4707, 4708, 4709, 4710, 4714, 4715, 4716, 4717, 4718, 4719, 4720, 4724
 4725, 4726, 4727, 4728, 4729, 4730, 4734, 4735, 4736, 4737, 5061, 5062, 5063, 5067, 5068, 5069
 5070, 5071, 5072, 5073, 5077, 5078, 5079, 5080
*Elset, elset=_CP-37-LCA_S6
 4681, 4682, 4683, 4691, 4692, 4693, 4701, 4702, 4703, 4711, 4712, 4713, 4721, 4722, 4723, 4731
 4732, 4733, 5064, 5065, 5066, 5074, 5075, 5076
*Surface, type=ELEMENT, name=RR_BUSH_IN
_CP-37-LCA_S4, S4
_CP-37-LCA_S6, S6
*Elset, elset=_CP-38-LCA_S3
 4738, 4739, 4740, 4741, 4742, 4743, 4744, 4745, 4747, 4755, 4756, 4757, 4758, 4759, 4760, 4761
 4762, 4764, 4772, 4773, 4774, 4775, 4776, 4777, 4778, 4779, 4781, 4789, 4790, 4791, 4792, 4793
 4794, 4795, 4796, 4798, 4806, 4807, 4808, 4809, 4810, 4811, 4812, 4813, 4815, 4823, 4824, 4825
 4826, 4827, 4828, 4829, 4830, 4832
*Elset, elset=_CP-38-LCA_S5
 4746, 4748, 4749, 4750, 4751, 4752, 4753, 4754, 4763, 4765, 4766, 4767, 4768, 4769, 4770, 4771
 4780, 4782, 4783, 4784, 4785, 4786, 4787, 4788, 4797, 4799, 4800, 4801, 4802, 4803, 4804, 4805
 4814, 4816, 4817, 4818, 4819, 4820, 4821, 4822, 4831, 4833, 4834, 4835, 4836, 4837, 4838, 4839
*Surface, type=ELEMENT, name=RR_BUSH_OUT
_CP-38-LCA_S3, S3
_CP-38-LCA_S5, S5
*Surface, type=NODE, name=BUSH_WELD_S1_CNS__CNS__CNS_
BUSH_WELD_S1_CNS__CNS_, 1.
*Surface, type=NODE, name=BUSH_WELD_S2_CNS__CNS__CNS_
BUSH_WELD_S2_CNS__CNS_, 1.
*Surface, type=NODE, name=DAMP_S_CNS__CNS__CNS_
DAMP_S_CNS__CNS_, 1.
**
**
**
** Constraint
*Tie, name=WELD1-1-1, adjust=no, position tolerance=3., type=node to surface
BUSH_WELD_S1_CNS__CNS__CNS_, "FRT BUSH WELD M"
*Tie, name=WELD2-1-1, adjust=no, position tolerance=3., type=node to surface
BUSH_WELD_S2_CNS__CNS__CNS_, "RR BUSH WELD M"
*Tie, name=WELD3-1-1, adjust=no, position tolerance=4., type=node to surface
DAMP_S_CNS__CNS__CNS_, "DAMPER PLATE"
**
**
**
*Node
   7211,           0.,           0.,           0.
*Nset, nset=Bolt1_PreTensionNode
7211, 
*Pre-tension Section, surface= PRE_TENSION_TOP1, node=Bolt1_PreTensionNode
         -0.,          -0.,          -1.
*Node
   7212,           0.,           0.,           0.
*Nset, nset=Bolt2_PreTensionNode
7212, 
*Pre-tension Section, surface= PRE_TENSION_TOP2, node=Bolt2_PreTensionNode
         -0.,          -0.,          -1.
** 
**---------------------------------
**
**	ADD FASTENER DEFINITIONS
** 
**---------------------------------
**
*Amplitude, name=AMP-1
          0.,           0.,        0.001,           1.,        0.002,           0.,           1.,           0.
** 
** MATERIALS
** 
*Material, name=STEEL
*Density
 7.8e-09,
*Elastic
200000., 0.3
** 
** INTERACTION PROPERTIES
** 
*Surface Interaction, name=BOLT_CONTACT_PROPERTY
1.,
*Friction, rough
*Surface Behavior, no separation
*Surface Interaction, name=BUSHING_PROPERTY
1.,
*Friction, rough
*Surface Behavior, no separation
** 
** INTERACTIONS
** 
** Interaction: BOLT_CONTACT_PROPERTY-1
*Contact Pair, interaction=BOLT_CONTACT_PROPERTY, type=SURFACE TO SURFACE, adjust=1.
"UPPER BOLT S1", "UPPER BOLT M1"
** Interaction: BOLT_CONTACT_PROPERTY-2
*Contact Pair, interaction=BOLT_CONTACT_PROPERTY, type=SURFACE TO SURFACE, adjust=1.
"UPPER BOLT S1_1", "UPPER BOLT M1_1"
** Interaction: BOLT_CONTACT_PROPERTY-3
*Contact Pair, interaction=BOLT_CONTACT_PROPERTY, type=SURFACE TO SURFACE, adjust=1.
"LOWER BOLT S1", "LOWER BOLT M1"
** Interaction: BOLT_CONTACT_PROPERTY-4
*Contact Pair, interaction=BOLT_CONTACT_PROPERTY, type=SURFACE TO SURFACE, adjust=1.
"LOWER BOLT S1_1", "LOWER BOLT M1_1"
** Interaction: BOLT_CONTACT_PROPERTY-5
*Contact Pair, interaction=BOLT_CONTACT_PROPERTY, type=SURFACE TO SURFACE, adjust=1.
"UPPER BOLT S2", "UPPER BOLT M2"
** Interaction: BOLT_CONTACT_PROPERTY-6
*Contact Pair, interaction=BOLT_CONTACT_PROPERTY, type=SURFACE TO SURFACE, adjust=1.
"UPPER BOLT S2_1", "UPPER BOLT M2_1"
** Interaction: BOLT_CONTACT_PROPERTY-7
*Contact Pair, interaction=BOLT_CONTACT_PROPERTY, type=SURFACE TO SURFACE, adjust=1.
"LOWER BOLT S2", "LOWER BOLT M2"
** Interaction: BOLT_CONTACT_PROPERTY-8
*Contact Pair, interaction=BOLT_CONTACT_PROPERTY, type=SURFACE TO SURFACE, adjust=1.
"LOWER BOLT S2_1", "LOWER BOLT M2_1"
**
**---------------------------------
**
**	ADD CONTACT DEFINITIONS FOR BUSHINGS 
** 
**---------------------------------
** 
** BOUNDARY CONDITIONS
** 
*Boundary
BJ, 3, 3
BUSH1, 2, 3
BUSH2, 1, 3
** 
** ----------------------------------------------------------------
**
**	ADD STEP DEFINITIONS
** 
** ----------------------------------------------------------------
