**  Plane stress wire crimping analysis
** 
**    Model Units are N-mm
** 
**    Force   -  Newtons
**    Length  -  Millimeters
**    Time    -  MilliSeconds
**    
**    Density -  Grams/mm^3  
** 
*Heading
**
** PARTS
**
*Part, name=anvil
*Node, nset=refPt
      1,           0.,         -1.5,           0.
*Surface, type=SEGMENTS, name=anvil
START, -1.08579963874457, -1.53016001511225
 LINE, -1.08579963874457, -0.730160015112246
 LINE, -0.885799638744568, -0.730160015112246
 CIRCL, 0.885799638744568, -0.730160015112246, 0., 1.94183998488775
 LINE, 1.08579963874457, -0.730160015112246
 LINE, 1.08579963874457, -1.53016001511225
*Rigid Body, ref node=RefPt, analytical surface=anvil
*End Part
**  
*Part, name=grip
*Node, nset=grip
      1,   1.15227175,   2.36848497
      2,   1.50000501,   2.27531004
      3,   1.46331203,   2.69471312
      4,   1.25466454,   2.75061989
      5,  -1.50000501,   2.27531004
      6,  -1.15227175,   2.36848497
      7,  -1.25466454,   2.75061989
      8,  -1.46331203,   2.69471312
      9,  0.482962906, -0.129409522
     10,  0.830696225, -0.222584382
     11, -0.830696225, -0.222584382
     12, -0.482962906, -0.129409522
     13,           0.,         -0.5
     14,           0., -0.860000014
     15,   1.21022725,   2.35295582
     16,   1.26818275,   2.33742666
     17,   1.32613838,   2.32189751
     18,   1.38409388,   2.30636835
     19,   1.44204938,    2.2908392
     20,   1.49541831,   2.32773542
** ... 1079 like lines cut
*Element, type=CPS4I, elset=grip
 1,   1,  15, 350,  38
 2,  15,  16, 351, 350
 3,  16,  17, 352, 351
 4,  17,  18, 353, 352
 5,  18,  19, 354, 353
 6,  19,   2,  20, 354
 7,  38, 350, 355,  37
 8, 350, 351, 356, 355
 9, 351, 352, 357, 356
10, 352, 353, 358, 357
11, 353, 354, 359, 358
12, 354,  20,  21, 359
13,  37, 355, 360,  36
14, 355, 356, 361, 360
15, 356, 357, 362, 361
16, 357, 358, 363, 362
17, 358, 359, 364, 363
18, 359,  21,  22, 364
19,  36, 360, 365,  35
20, 360, 361, 366, 365
** ... 916 like lines cut
*Surface, type=ELEMENT, name=grip
grip,
*Solid Section, elset=grip, material=grip
1.7,
*End Part
**  
*Part, name=punch
*Node, nset=refPt
      1,           0.,           4.,           0.
*Surface, type=SEGMENTS, name=punch
START,      1.90016, 1.81575005326323
 CIRCL, 1.23411553485343, 4.04485032088427, 6.22640242208623, 4.32246611157965
 LINE, 1.06875218692359, 7.01853295125976
 CIRCL, 0.0995461826866335, 7.31514874697462, 0.529585191188888, 6.98855044451972
 CIRCL,           0., 7.26575005326323,           0., 7.39075005326323
 CIRCL, -0.0995460238365998, 7.31514853781325,           0., 7.39075005326323
 CIRCL, -1.06875218692359, 7.01853295125976, -0.529585191188888, 6.98855044451973
 LINE, -1.23411553373168, 4.04485034105632
 CIRCL,     -1.90016, 1.81575005326323, -6.22640253127535, 4.32246614420485
*Rigid Body, ref node=refPt, analytical surface=punch
*End Part
**  
*Part, name=wire
*Node, nset=wire
      1,           0.,           0.
      2,           0.,  0.155000001
      3, -0.155000001,           0.
      4,  0.155000001,           0.
      5,           0., -0.155000001
      6,           0., 0.0370296948
      7,           0., 0.0744163692
      8,           0.,   0.11236836
      9, -0.0442712978,  0.148543105
     10, -0.082598798,  0.131158069
     11, -0.110466413,   0.10872981
     12, -0.131947637, 0.0813315362
     13, -0.148454323, 0.0445680991
     14, -0.112450242,           0.
     15, -0.0739981979,           0.
     16, -0.0370205902,           0.
     17, 0.0369930193,           0.
     18, 0.0741661936,           0.
     19,  0.112529449,           0.
     20,  0.148551494, 0.0442431346
** ... 53 like lines cut
*Element, type=CPS4, elset=wire
 1, 14, 15, 43, 42
 2, 15, 16, 44, 43
 3, 16,  1,  6, 44
 4, 42, 43, 45, 41
 5, 43, 44, 46, 45
 6, 44,  6,  7, 46
 7, 41, 45, 40, 38
 8, 45, 46, 39, 40
 9, 46,  7,  8, 39
10,  8,  2,  9, 39
11, 39,  9, 10, 40
12, 40, 10, 11, 38
13, 11, 12, 41, 38
14, 12, 13, 42, 41
15, 13,  3, 14, 42
16, 22, 23, 49, 47
17, 23, 24, 48, 49
18, 24,  2,  8, 48
19,  8,  7, 52, 48
20,  7,  6, 53, 52
** ... 40 like lines cut
*Surface, type=ELEMENT, name=wire
wire,
*Solid Section, elset=wire, material=copper
2.3,
*End Part
**  
**
** ASSEMBLY
**
*Assembly, name=Assembly
**  
*Instance, name=grip-1, part=grip
*End Instance
**  
*Instance, name=wire-1, part=wire
-0.155,       0.2685,           0.
*End Instance
**  
*Instance, name=wire-2, part=wire
0.155,       0.2685,           0.
*End Instance
**  
*Instance, name=wire-3, part=wire
*End Instance
**  
*Instance, name=wire-4, part=wire
0.31,           0.,           0.
*End Instance
**  
*Instance, name=wire-5, part=wire
-0.31,           0.,           0.
*End Instance
**  
*Instance, name=wire-6, part=wire
-0.155,      -0.2685,           0.
*End Instance
**  
*Instance, name=wire-7, part=wire
0.155,      -0.2685,           0.
*End Instance
**  
*Instance, name=punch-1, part=punch
*End Instance
**  
*Instance, name=anvil-1, part=anvil
*End Instance
**  
*Surface, name=wires, combine=union
 wire-1.wire, wire-2.wire, wire-3.wire, wire-4.wire
 wire-5.wire, wire-6.wire, wire-7.wire
**
*End Assembly
** 
** MATERIALS
** 
*Material, name=copper
*Damping, beta=0.0002
*Density
 0.0085,
*Elastic
17800., 0.34
*Plastic
  210., 0.
10000.,20.
*Material, name=grip
*Damping, beta=0.0002
*Density
 0.0085,
*Elastic
100000., 0.34
*Plastic
400., 0.
800.,20.
