*Heading
** incomplete input file for the co-simulation workshop in the
**   ABAQUS/Explicit: Advanced Topics,
**   Substructures and Submodeling with Abaqus,
**   and Crashworthiness Analysis with Abaqus seminars
Beam Impact Co-simulation - Abaqus/Explicit only reference solution
**
**
*Preprint, echo=NO, model=NO, history=NO, contact=NO
**
** PARTS
**
*Part, name=Impactor
*Node
      1,           0.,          1.5,          4.5
      2,          1.5,           0.,          4.5
      3,           0.,           0.,          4.5
      4,          1.5,           0.,          0.5
      5,           0.,          1.5,          0.5
      6,           0.,           0.,          0.5
      7,           0.,         -1.5,           0.
      8,           0.,         -1.5,          0.5
      9,           0.,          -2.,          0.5
     10,          1.5,           0.,           0.
     11,           2.,           0.,          0.5
     12,         -1.5,           0.,          0.5
     13,          -2.,           0.,          0.5
     14,         -1.5,           0.,           0.
     15,         -1.5,           0.,          4.5
     16,           0.,          1.5,           5.
     17,           0.,           2.,          4.5
     18,         -1.5,           0.,           5.
     19,          -2.,           0.,          4.5
     20,           0.,         -1.5,          4.5
** ... 4210 like lines cut
*Element, type=C3D8R
  1,  511,  512, 2234, 2224,   33,   32,  444,  443
  2,  512,  513, 2235, 2234,   32,   31,  445,  444
  3,  513,  514, 2236, 2235,   31,   30,  446,  445
  4,  514,  515, 2237, 2236,   30,   29,  447,  446
  5,  515,   52,  463, 2237,   29,    1,   40,  447
  6,  516,  517, 2238, 2223,  511,  512, 2234, 2224
  7,  517,  518, 2239, 2238,  512,  513, 2235, 2234
  8,  518,  519, 2240, 2239,  513,  514, 2236, 2235
  9,  519,  520, 2241, 2240,  514,  515, 2237, 2236
 10,  520,   51,  464, 2241,  515,   52,  463, 2237
 11,  521,  522, 2242, 2222,  516,  517, 2238, 2223
 12,  522,  523, 2243, 2242,  517,  518, 2239, 2238
 13,  523,  524, 2244, 2243,  518,  519, 2240, 2239
 14,  524,  525, 2245, 2244,  519,  520, 2241, 2240
 15,  525,   50,  465, 2245,  520,   51,  464, 2241
 16,  526,  527, 2246, 2221,  521,  522, 2242, 2222
 17,  527,  528, 2247, 2246,  522,  523, 2243, 2242
 18,  528,  529, 2248, 2247,  523,  524, 2244, 2243
 19,  529,  530, 2249, 2248,  524,  525, 2245, 2244
 20,  530,   49,  466, 2249,  525,   50,  465, 2245
** ... 3716 like lines cut
*Nset, nset=_PickedSet11, internal, generate
    1,  4230,     1
*Elset, elset=_PickedSet11, internal, generate
    1,  3736,     1
** Section: Section-1
*Solid Section, elset=_PickedSet11, material=Material-1
,
*End Part
**  
*Part, name=beamTip
*Node
      1,          0.5,          0.5,          10.
      2,          0.5,           0.,          10.
      3,          0.5,         -0.5,          10.
      4,          0.5,          0.5,           9.
      5,          0.5,           0.,           9.
      6,          0.5,         -0.5,           9.
      7,          0.5,          0.5,           8.
      8,          0.5,           0.,           8.
      9,          0.5,         -0.5,           8.
     10,          0.5,          0.5,           7.
     11,          0.5,           0.,           7.
     12,          0.5,         -0.5,           7.
     13,          0.5,          0.5,           6.
     14,          0.5,           0.,           6.
     15,          0.5,         -0.5,           6.
     16,          0.5,          0.5,           5.
     17,          0.5,           0.,           5.
     18,          0.5,         -0.5,           5.
     19,          0.5,          0.5,           4.
     20,          0.5,           0.,           4.
** ... 79 like lines cut
*Element, type=C3D8I
 1, 34, 35, 38, 37,  1,  2,  5,  4
 2, 35, 36, 39, 38,  2,  3,  6,  5
 3, 37, 38, 41, 40,  4,  5,  8,  7
 4, 38, 39, 42, 41,  5,  6,  9,  8
 5, 40, 41, 44, 43,  7,  8, 11, 10
 6, 41, 42, 45, 44,  8,  9, 12, 11
 7, 43, 44, 47, 46, 10, 11, 14, 13
 8, 44, 45, 48, 47, 11, 12, 15, 14
 9, 46, 47, 50, 49, 13, 14, 17, 16
10, 47, 48, 51, 50, 14, 15, 18, 17
11, 49, 50, 53, 52, 16, 17, 20, 19
12, 50, 51, 54, 53, 17, 18, 21, 20
13, 52, 53, 56, 55, 19, 20, 23, 22
14, 53, 54, 57, 56, 20, 21, 24, 23
15, 55, 56, 59, 58, 22, 23, 26, 25
16, 56, 57, 60, 59, 23, 24, 27, 26
17, 58, 59, 62, 61, 25, 26, 29, 28
18, 59, 60, 63, 62, 26, 27, 30, 29
19, 61, 62, 65, 64, 28, 29, 32, 31
20, 62, 63, 66, 65, 29, 30, 33, 32
** ... 20 like lines cut
*Nset, nset=_PickedSet5, internal, generate
  1,  99,   1
*Elset, elset=_PickedSet5, internal, generate
  1,  40,   1
** Section: Section-1
*Solid Section, elset=_PickedSet5, material=Material-1
,
*End Part
**  
**
** ASSEMBLY
**
*Assembly, name=Assembly
**  
*Instance, name=Impactor-1, part=Impactor
          0.,          5.5, -9.99999977236758
          0.,          5.5, -9.99999977236758,           1.,          5.5, -9.99999977236758,          90.
*End Instance
**  
*Instance, name=beamTip-1, part=beamTip
          0.,           0.,         -10.
*End Instance
**  
*Node
      1,  2.10556194e-31,          5.5,         -10.
*Nset, nset=impactor-refPt
 1,
*Nset, nset=beamTip, instance=beamTip-1, generate
  1,  99,   1
*Elset, elset=beamTip, instance=beamTip-1, generate
  1,  40,   1
*Nset, nset=cosim-xpl, instance=beamTip-1
  1,  2,  3, 34, 35, 36, 67, 68, 69
*Elset, elset=cosim-xpl, instance=beamTip-1
  1,  2, 21, 22
*Nset, nset=tip, instance=beamTip-1
 31,
*Nset, nset=impactor-All, instance=Impactor-1, generate
    1,  4230,     1
*Elset, elset=impactor-All, instance=Impactor-1, generate
    1,  3736,     1
*Elset, elset=_cosim-xpl-surf_S3, internal, instance=beamTip-1
  1,  2, 21, 22
*Surface, type=ELEMENT, name=cosim-xpl-surf
_cosim-xpl-surf_S3, S3
** Constraint: rigid body - impactor
*Rigid Body, ref node=impactor-refPt, elset=impactor-All, position=CENTER OF MASS
*End Assembly
** 
** MATERIALS
** 
*Material, name=Material-1
*Density
1.,
*Elastic
100000., 0.1
** 
** INTERACTION PROPERTIES
** 
*Surface Interaction, name=IntProp-1
** 
** PREDEFINED FIELDS
** 
** Name: impactor velocity   Type: Velocity
*Initial Conditions, type=VELOCITY
impactor-refPt, 1, 0.
impactor-refPt, 2, -10.
impactor-refPt, 3, 0.
** ----------------------------------------------------------------
** 
** STEP: Step-1
** 
*Step, name=Step-1
**
******************************************
** ADD EXPLICIT DYNAMIC PROCEDURE
**
**
******************************************
** ADD CO-SIMULATION INPUT
**
**
*
** 
** INTERACTIONS
** 
** Interaction: general contact
*Contact, op=NEW
*Contact Inclusions, ALL EXTERIOR
*Contact property assignment
 ,  , IntProp-1
** 
** OUTPUT REQUESTS
** 
*Restart, write, number interval=1, time marks=NO
** 
** FIELD OUTPUT: F-Output-1
** 
*Output, field, variable=PRESELECT, number interval=10, time marks=YES
** 
** HISTORY OUTPUT: H-Output-2-tip
** 
*Output, history
*Node Output, nset=tip
U2, 
** 
** HISTORY OUTPUT: H-Output-1
** 
*Output, history, variable=PRESELECT
*End Step
