*HEADING
2D MODEL -- CERAMIC-COPPER-STEEL
**  This file is to be used in conjuction with the 
**  Submodeling with Abaqus lecture series. It is an incomplete
**  input file that requires additional user input.
***
--> cool-down only (800C to 20C)
    assume stress-free conditions at 800C
***
*SYSTEM
,1.45
*NODE,NSET=NALL
       1,       3.151,        0.16
       2,     3.15146,    0.164679
       3,     3.15283,    0.169177
       4,     3.15505,    0.173321
       5,     3.15803,    0.176958
       6,       3.143,        0.16
       7,      3.1433,    0.167118
       8,     3.14409,    0.174121
       9,     3.14522,    0.181107
      10,     3.14651,    0.188477
      11,       3.135,        0.16
      12,       3.135,        0.17
      13,       3.135,        0.18
      14,       3.135,        0.19
      15,       3.135,         0.2
      17,     3.16168,    0.179943
      18,     3.16582,     0.18217
      19,     3.17032,    0.183537
      20,       3.175,       0.184
      22,     3.15389,    0.189778
** ... 548 like lines cut
**
**
*ELEMENT, TYPE=CPE3, ELSET=CERAMIC
      20,      34,      51,      38
      24,      38,      51,      42
      28,      42,      51,      46
      32,      46,      51,      50
      36,      50,      51,      59
      40,      59,      51,      63
      44,      63,      51,      67
      48,      67,      51,      71
*ELEMENT, TYPE=CPE4, ELSET=CERAMIC
       1,       1,       2,       7,       6
       2,       2,       3,       8,       7
       3,       3,       4,       9,       8
       4,       4,       5,      10,       9
       5,       6,       7,      12,      11
       6,       7,       8,      13,      12
       7,       8,       9,      14,      13
       8,       9,      10,      15,      14
       9,       5,      17,      22,      10
      10,      17,      18,      23,      22
      11,      18,      19,      24,      23
      12,      19,      20,      25,      24
      13,      10,      22,      27,      15
      14,      22,      23,      28,      27
      15,      23,      24,      29,      28
      16,      24,      25,      30,      29
      17,       1,      32,      36,       2
      18,      32,      33,      37,      36
      19,      33,      34,      38,      37
      21,       2,      36,      40,       3
** ... 112 like lines cut
*ELEMENT, TYPE=CPE3, ELSET=COPPER
     160,     248,     265,     252
     164,     252,     265,     256
     168,     256,     265,     260
     172,     260,     265,     264
     176,     264,     265,     273
     180,     273,     265,     277
     184,     277,     265,     281
     188,     281,     265,     285
     217,      34,     333,      51
     218,     333,     334,      51
     219,     334,     335,      51
     220,     335,     336,      51
     233,     336,     354,      51
     234,     354,     355,      51
     235,     355,     356,      51
     236,     356,     357,      51
*ELEMENT, TYPE=CPE4, ELSET=COPPER
     141,     215,     216,     221,     220
     142,     216,     217,     222,     221
     143,     217,     218,     223,     222
     144,     218,     219,     224,     223
     145,     220,     221,     226,     225
     146,     221,     222,     227,     226
     147,     222,     223,     228,     227
     148,     223,     224,     229,     228
     149,     219,     231,     236,     224
     150,     231,     232,     237,     236
     151,     232,     233,     238,     237
     152,     233,     234,     239,     238
     153,     224,     236,     241,     229
     154,     236,     237,     242,     241
     155,     237,     238,     243,     242
     156,     238,     239,     244,     243
     157,     215,     246,     250,     216
     158,     246,     247,     251,     250
     159,     247,     248,     252,     251
     161,     216,     250,     254,     217
** ... 136 like lines cut
*ELEMENT, TYPE=CPE3, ELSET=STEEL
     373,     248,     578,     265
     374,     578,     579,     265
     375,     579,     580,     265
     376,     580,     581,     265
     389,     581,     599,     265
     390,     599,     600,     265
     391,     600,     601,     265
     392,     601,     602,     265
     405,     602,     620,     265
     406,     620,     621,     265
     407,     621,     622,     265
     408,     622,     623,     265
     421,     623,     641,     265
     422,     641,     642,     265
     423,     642,     643,     265
     424,     643,     644,     265
*ELEMENT, TYPE=CPE4, ELSET=STEEL
     313,     472,     473,     478,     477
     314,     473,     474,     479,     478
     315,     474,     475,     480,     479
     316,     475,     476,     481,     480
     317,     477,     478,     483,     482
     318,     478,     479,     484,     483
     319,     479,     480,     485,     484
     320,     480,     481,     486,     485
     321,     476,     488,     493,     481
     322,     488,     489,     494,     493
     323,     489,     490,     495,     494
     324,     490,     491,     496,     495
     325,     481,     493,     498,     486
     326,     493,     494,     499,     498
     327,     494,     495,     500,     499
     328,     495,     496,     501,     500
     329,     215,     220,     506,     505
     330,     220,     225,     507,     506
     331,     505,     506,     509,     508
     332,     506,     507,     510,     509
** ... 188 like lines cut
**
** steel
**
*NSET, NSET=STEEL
     215,     220,     225,     246,     247,     248,     265,     440,
     441,     442,     443,     444,     445,     446,     447,     448,
     449,     450,     458,     463,     468,     472,     473,     474,
     475,     476,     477,     478,     479,     480,     481,     482,
     483,     484,     485,     486,     488,     489,     490,     491,
     493,     494,     495,     496,     498,     499,     500,     501,
     505,     506,     507,     508,     509,     510,     511,     512,
     513,     514,     515,     521,     522,     524,     525,     527,
     528,     529,     530,     535,     536,     538,     539,     541,
     542,     544,     545,     550,     551,     552,     553,     554,
     555,     556,     557,     558,     559,     560,     561,     568,
     569,     570,     571,     573,     574,     575,     576,     578,
     579,     580,     581,     589,     590,     591,     592,     594,
     595,     596,     597,     599,     600,     601,     602,     610,
     611,     612,     613,     615,     616,     617,     618,     620,
     621,     622,     623,     631,     632,     633,     634,     636,
     637,     638,     639,     641,     642,     643,     644,     646,
     647,     648,     649,     650,     651,     652,     653,     654,
     655,     656,     657,     658,     659,     660,     661,     662,
     663,     664,     665,     666,     667,     680,     681,     682,
** ... 12 like lines cut
**
** steel
**
*ELSET, ELSET=STEEL_1
     313,     314,     315,     316,     317,     318,     319,     320,
     321,     322,     323,     324,     325,     326,     327,     328,
     329,     330,     331,     332,     333,     334,     335,     336,
     337,     338,     339,     340,     341,     342,     343,     344,
     345,     346,     347,     348,     349,     350,     351,     352,
     353,     354,     355,     356,     357,     358,     359,     360,
     361,     362,     363,     364,     365,     366,     367,     368,
     369,     370,     371,     372,     373,     374,     375,     376,
     377,     378,     379,     380,     381,     382,     383,     384,
     385,     386,     387,     388,     389,     390,     391,     392,
     393,     394,     395,     396,     397,     398,     399,     400,
     401,     402,     403,     404,     405,     406,     407,     408,
     409,     410,     411,     412,     413,     414,     415,     416,
     417,     418,     419,     420,     421,     422,     423,     424,
     425,     426,     427,     428,     429,     430,     431,     432,
     433,     434,     435,     436,     437,     438,     439,     440,
     441,     442,     443,     444,     445,     446,     447,     448,
     449,     450,     451,     452,     453,     454,     455,     456,
     457,     458,     459,     460,     461,     462,     463,     464,
     465,     466,     467,     468,     469,     470,     471,     472,
** ... 8 like lines cut
**
** copper
**
*NSET, NSET=COPPER
       1,       6,      11,      32,      33,      34,      51,     126,
     131,     136,     141,     173,     174,     175,     176,     177,
     178,     179,     180,     181,     182,     215,     216,     217,
     218,     219,     220,     221,     222,     223,     224,     225,
     226,     227,     228,     229,     231,     232,     233,     234,
     236,     237,     238,     239,     241,     242,     243,     244,
     246,     247,     248,     250,     251,     252,     254,     255,
     256,     258,     259,     260,     262,     263,     264,     265,
     271,     272,     273,     275,     276,     277,     279,     280,
     281,     283,     284,     285,     290,     291,     292,     293,
     294,     295,     296,     297,     298,     299,     300,     306,
     307,     309,     310,     312,     313,     314,     315,     323,
     324,     325,     326,     328,     329,     330,     331,     333,
     334,     335,     336,     344,     345,     346,     347,     349,
     350,     351,     352,     354,     355,     356,     357,     359,
     360,     361,     362,     363,     364,     365,     366,     367,
     368,     369,     370,     371,     372,     373,     374,     375,
     376,     377,     378,     379,     380,     393,     394,     395,
     397,     398,     399,     400,     403,     404,     405,     406,
     408,     409,     410,     411,     429,     430,     431,     432,
** ... 4 like lines cut
     ,  471
**
** copper
**
*ELSET, ELSET=COPPER_1
     141,     142,     143,     144,     145,     146,     147,     148,
     149,     150,     151,     152,     153,     154,     155,     156,
     157,     158,     159,     160,     161,     162,     163,     164,
     165,     166,     167,     168,     169,     170,     171,     172,
     173,     174,     175,     176,     177,     178,     179,     180,
     181,     182,     183,     184,     185,     186,     187,     188,
     189,     190,     191,     192,     193,     194,     195,     196,
     197,     198,     199,     200,     201,     202,     203,     204,
     205,     206,     207,     208,     209,     210,     211,     212,
     213,     214,     215,     216,     217,     218,     219,     220,
     221,     222,     223,     224,     225,     226,     227,     228,
     229,     230,     231,     232,     233,     234,     235,     236,
     237,     238,     239,     240,     241,     242,     243,     244,
     245,     246,     247,     248,     249,     250,     251,     252,
     253,     254,     255,     256,     257,     258,     259,     260,
     261,     262,     263,     264,     265,     266,     267,     268,
     269,     270,     271,     272,     273,     274,     275,     276,
     277,     278,     279,     280,     281,     282,     283,     284,
     285,     286,     287,     288,     289,     290,     291,     292,
     293,     294,     295,     296,     297,     298,     299,     300,
     301,     302,     303,     304,     305,     306,     307,     308,
     309,     310,     311,      312
**
** ceramic
**
*NSET, NSET=CERAMIC
       1,       2,       3,       4,       5,       6,       7,       8,
       9,      10,      11,      12,      13,      14,      15,      17,
      18,      19,      20,      22,      23,      24,      25,      27,
      28,      29,      30,      32,      33,      34,      36,      37,
      38,      40,      41,      42,      44,      45,      46,      48,
      49,      50,      51,      57,      58,      59,      61,      62,
      63,      65,      66,      67,      69,      70,      71,      78,
      79,      80,      81,      82,      83,      84,      85,      86,
      87,      88,      89,      90,      91,      92,      93,      94,
      95,      96,      97,      98,      99,     100,     101,     103,
     104,     105,     106,     108,     109,     110,     111,     112,
     114,     115,     116,     117,     119,     120,     121,     122,
     125,     126,     127,     128,     129,     131,     132,     133,
     134,     136,     137,     138,     139,     141,     142,     143,
     144,     151,     152,     153,     154,     155,     156,     157,
     158,     159,     160,     162,     163,     164,     165,     166,
     167,     168,     169,     170,     171,     173,     174,     175,
     176,     177,     178,     179,     180,     181,     182,     194,
     195,     196,     197,     198,     199,     200,     201,     202,
     203,     205,     206,     207,     208,     209,     210,     211,
     212,     213,      214
**
** ceramic
**
*ELSET, ELSET=CERAMI_1
       1,       2,       3,       4,       5,       6,       7,       8,
       9,      10,      11,      12,      13,      14,      15,      16,
      17,      18,      19,      20,      21,      22,      23,      24,
      25,      26,      27,      28,      29,      30,      31,      32,
      33,      34,      35,      36,      37,      38,      39,      40,
      41,      42,      43,      44,      45,      46,      47,      48,
      49,      50,      51,      52,      53,      54,      55,      56,
      57,      58,      59,      60,      61,      62,      63,      64,
      65,      66,      67,      68,      69,      70,      71,      72,
      73,      74,      75,      76,      77,      78,      79,      80,
      81,      82,      83,      84,      85,      86,      87,      88,
      89,      90,      91,      92,      93,      94,      95,      96,
      97,      98,      99,     100,     101,     102,     103,     104,
     105,     106,     107,     108,     109,     110,     111,     112,
     113,     114,     115,     116,     117,     118,     119,     120,
     121,     122,     123,     124,     125,     126,     127,     128,
     129,     130,     131,     132,     133,     134,     135,     136,
     137,     138,     139,      140
**
** LHS
**
*NSET, NSET=LHS
     160,     171,     182,     194,     359,     370,     439,
     450,     646,     657,     716
**
** DRIVE_TOP
**
*NSET, NSET=DRIVE_TO
      93,      94,      95,      96,      97,     119,     120,     121,
     122,     205,     206,     207,     208,     209,     210,     211,
     212,     213,      214
**
** DRIVE_RIGHT
**
*NSET, NSET=DRIVE_RI
     784,     790,     796,     817,      823
**
** DRIVE_BOTTOM
**
*NSET, NSET=DRIVE_BO
     472,     473,     474,     475,     476,     488,     489,     490,
     491,     705,     706,     707,     708,     709,     710,     711,
     712,     713,     714,     715,     739,     740,     741,     798,
     799,     800,     801,     813,     814,     815,     816,      817
**
*NSET,NSET=DRIVE_TT
644,639,634,559,560,561,775,776,777,778,792,793,794,795
*NSET,NSET=DRIVE_RR
92,87,82,30,25,20,69,70,71,51,357,352
347,314,315,244,239,234,283,284,285,265
**
** STEEL
**
*SOLID SECTION, ELSET=STEEL, MATERIAL=STEEL
          1.,
**
** CERAMIC
**
*SOLID SECTION, ELSET=CERAMIC, MATERIAL=CERAMIC
          1.,
**
** COPPER
**
*SOLID SECTION, ELSET=COPPER, MATERIAL=COPPER
          1.,
**
** CERAMIC
**
*MATERIAL, NAME=CERAMIC
**
*ELASTIC, TYPE=ISO
280000.,.22
*EXPANSION
2.7E-6, 
**
** STEEL
**
*MATERIAL, NAME=STEEL
**
*ELASTIC, TYPE=ISO
203000.,.28
*EXPANSION
1.2E-5, 
*PLASTIC
200.,,20.
240.,.1,20.
110.,,800.
140.,.1,800.
**
** COPPER
**
*MATERIAL, NAME=COPPER
**
*ELASTIC, TYPE=ISO
126000.,.34
*EXPANSION
1.6E-5, 
*PLASTIC
112.,,20.
130.,.1,20.
23.,,800.
30.,.1,800.
*INITIAL CONDITIONS,TYPE=TEMPERATURE
NALL,800.
**
*NSET,NSET=DRIVER
DRIVE_TO,DRIVE_BO,DRIVE_RI
**
** step definition
**
*STEP, INC=20
*STATIC
.01,1.,.001
**
*TEMPERATURE
NALL,20.
*END STEP





