*HEADING
2D MODEL -- CERAMIC-COPPER-STEEL
** This file is to be used in conjuction with the 
** Submodeling with Abaqus lecture series
***
--> cool-down only (800C to 20C)
    assume stress-free conditions at 800C
***
*NODE,NSET=NALL
       1,       3.151,        1.61
       2,     3.15146,     1.61468
       3,     3.15283,     1.61918
       4,     3.15505,     1.62332
       5,     3.15803,     1.62696
       6,       3.143,        1.61
       7,      3.1433,     1.61712
       8,     3.14409,     1.62412
       9,     3.14522,     1.63111
      10,     3.14651,     1.63848
      11,       3.135,        1.61
      12,       3.135,        1.62
      13,       3.135,        1.63
      14,       3.135,        1.64
      15,       3.135,        1.65
      17,     3.16168,     1.62994
      18,     3.16582,     1.63217
      19,     3.17032,     1.63354
      20,       3.175,       1.634
      22,     3.15389,     1.63978
** ... 803 like lines cut
**
**
*ELEMENT, TYPE=CPE4, ELSET=CERAMIC
       1,       1,       2,       7,       6
       2,       2,       3,       8,       7
       3,       3,       4,       9,       8
       4,       4,       5,      10,       9
       5,       6,       7,      12,      11
       6,       7,       8,      13,      12
       7,       8,       9,      14,      13
       8,       9,      10,      15,      14
       9,       5,      17,      22,      10
      10,      17,      18,      23,      22
      11,      18,      19,      24,      23
      12,      19,      20,      25,      24
      13,      10,      22,      27,      15
      14,      22,      23,      28,      27
      15,      23,      24,      29,      28
      16,      24,      25,      30,      29
      17,       1,      32,      36,       2
      18,      32,      33,      37,      36
      19,      33,      34,      38,      37
      21,       2,      36,      40,       3
** ... 112 like lines cut
**
**
     537,      93,      94,     830,     829
     538,      94,      95,     831,     830
     539,      95,      96,     832,     831
     540,      96,      97,     833,     832
     541,     829,     830,     835,     834
     542,     830,     831,     836,     835
     543,     831,     832,     837,     836
     544,     832,     833,     838,     837
     545,     834,     835,     840,     839
     546,     835,     836,     841,     840
     547,     836,     837,     842,     841
     548,     837,     838,     843,     842
     549,     839,     840,     845,     844
     550,     840,     841,     846,     845
     551,     841,     842,     847,     846
     552,     842,     843,     848,     847
     553,     844,     845,     850,     849
     554,     845,     846,     851,     850
     555,     846,     847,     852,     851
     556,     847,     848,     853,     852
** ... 70 like lines cut
*ELEMENT, TYPE=CPE4, ELSET=COPPER
     141,     215,     216,     221,     220
     142,     216,     217,     222,     221
     143,     217,     218,     223,     222
     144,     218,     219,     224,     223
     145,     220,     221,     226,     225
     146,     221,     222,     227,     226
     147,     222,     223,     228,     227
     148,     223,     224,     229,     228
     149,     219,     231,     236,     224
     150,     231,     232,     237,     236
     151,     232,     233,     238,     237
     152,     233,     234,     239,     238
     153,     224,     236,     241,     229
     154,     236,     237,     242,     241
     155,     237,     238,     243,     242
     156,     238,     239,     244,     243
     157,     215,     246,     250,     216
     158,     246,     247,     251,     250
     159,     247,     248,     252,     251
     161,     216,     250,     254,     217
** ... 136 like lines cut
*ELEMENT, TYPE=CPE4, ELSET=STEEL
     313,     472,     473,     478,     477
     314,     473,     474,     479,     478
     315,     474,     475,     480,     479
     316,     475,     476,     481,     480
     317,     477,     478,     483,     482
     318,     478,     479,     484,     483
     319,     479,     480,     485,     484
     320,     480,     481,     486,     485
     321,     476,     488,     493,     481
     322,     488,     489,     494,     493
     323,     489,     490,     495,     494
     324,     490,     491,     496,     495
     325,     481,     493,     498,     486
     326,     493,     494,     499,     498
     327,     494,     495,     500,     499
     328,     495,     496,     501,     500
     329,     215,     220,     506,     505
     330,     220,     225,     507,     506
     331,     505,     506,     509,     508
     332,     506,     507,     510,     509
** ... 188 like lines cut
**
**
     627,     801,     946,     952,     813
     628,     946,     947,     953,     952
     629,     947,     948,     954,     953
     630,     948,     949,     955,     954
     631,     949,     950,     956,     955
     632,     813,     952,     958,     814
     633,     952,     953,     959,     958
     634,     953,     954,     960,     959
     635,     954,     955,     961,     960
     636,     955,     956,     962,     961
     637,     814,     958,     964,     815
     638,     958,     959,     965,     964
     639,     959,     960,     966,     965
     640,     960,     961,     967,     966
     641,     961,     962,     968,     967
     642,     815,     964,     970,     816
     643,     964,     965,     971,     970
     644,     965,     966,     972,     971
     645,     966,     967,     973,     972
     646,     967,     968,     974,     973
** ... 135 like lines cut
*ELEMENT, TYPE=CPE3, ELSET=CERAMIC
      20,      34,      51,      38
      24,      38,      51,      42
      28,      42,      51,      46
      32,      46,      51,      50
      36,      50,      51,      59
      40,      59,      51,      63
      44,      63,      51,      67
      48,      67,      51,      71
*ELEMENT, TYPE=CPE3, ELSET=COPPER
     160,     248,     265,     252
     164,     252,     265,     256
     168,     256,     265,     260
     172,     260,     265,     264
     176,     264,     265,     273
     180,     273,     265,     277
     184,     277,     265,     281
     188,     281,     265,     285
     217,      34,     333,      51
     218,     333,     334,      51
     219,     334,     335,      51
     220,     335,     336,      51
     233,     336,     354,      51
     234,     354,     355,      51
     235,     355,     356,      51
     236,     356,     357,      51
*ELEMENT, TYPE=CPE3, ELSET=STEEL
     373,     248,     578,     265
     374,     578,     579,     265
     375,     579,     580,     265
     376,     580,     581,     265
     389,     581,     599,     265
     390,     599,     600,     265
     391,     600,     601,     265
     392,     601,     602,     265
     405,     602,     620,     265
     406,     620,     621,     265
     407,     621,     622,     265
     408,     622,     623,     265
     421,     623,     641,     265
     422,     641,     642,     265
     423,     642,     643,     265
     424,     643,     644,     265
**
** LHS
**
*NSET, NSET=LHS
     160,     171,     182,     194,     205,     359,     370,     439,
     450,     646,     657,     705,     716,     940,     941,     942,
     943,    1090,    1091,    1092,    1093
**
** drive_to
**
*NSET, NSET=DRIVE_TO
     849,     850,     851,     852,     853,     855,     856,     857,
     858,     890,     896,     902,     908,     914,     920,     926,
     932,     938,      944
**
** drive_bo
**
*NSET, NSET=DRIVE_BO
     950,     956,     962,     968,     974,     980,     986,     992,
     998,    1004,    1016,    1022,    1028,    1034,    1040,    1046,
    1052,    1058,    1070,    1076,    1082,    1088,    1094,    1100,
    1106,    1112,    1118,    1124,    1130,    1136,    1142,     1148
**
** drive_ri
**
*NSET, NSET=DRIVE_RI
     784,     790,     796,     817,     823,     976,     977,     978,
     979,      980
**
** STEEL
**
*SOLID SECTION, ELSET=STEEL, MATERIAL=STEEL
          1.,
**
** CERAMIC
**
*SOLID SECTION, ELSET=CERAMIC, MATERIAL=CERAMIC
          1.,
**
** COPPER
**
*SOLID SECTION, ELSET=COPPER, MATERIAL=COPPER
          1.,
**
** CERAMIC
**
*MATERIAL, NAME=CERAMIC
**
*ELASTIC, TYPE=ISO
280000.,.22
*EXPANSION
2.7E-6, 
**
** STEEL
**
*MATERIAL, NAME=STEEL
**
*ELASTIC, TYPE=ISO
203000.,.28
*EXPANSION
1.2E-5, 
*PLASTIC
200.,,20.
240.,.1,20.
110.,,800.
140.,.1,800.
**
** COPPER
**
*MATERIAL, NAME=COPPER
**
*ELASTIC, TYPE=ISO
126000.,.34
*EXPANSION
1.6E-5, 
*PLASTIC
112.,,20.
130.,.1,20.
23.,,800.
30.,.1,800.
*INITIAL CONDITIONS,TYPE=TEMPERATURE
NALL,800.
**
*NSET,NSET=DRIVER
DRIVE_TO,DRIVE_BO,DRIVE_RI
*SUBMODEL, EXTERIOR TOLERANCE=.1
DRIVER,
**
** step definition
**
*STEP, INC=20
*STATIC
.01,1.,.001
*BOUNDARY
LHS, 1, 1
*BOUNDARY,STEP=1,SUBMODEL
DRIVER,1,2
*TEMPERATURE
NALL,20.
*END STEP
