*Heading
** input file for the co-simulation workshop in the
**   Abaqus/Explicit: Advanced Topics,
**   Substructures and Submodeling with Abaqus,
**   and Crashworthiness Analysis with Abaqus seminars
Beam Impact Co-simulation - substructure generation 
**
**
*Preprint, echo=NO, model=NO, history=NO, contact=NO
** ----------------------------------------------------------------
** 
** PART INSTANCE: beamRoot-1
** 
*Node
   4231,          0.5,          0.5,          10.
   4232,          0.5,           0.,          10.
   4233,          0.5,         -0.5,          10.
   4234,          0.5,          0.5,           9.
   4235,          0.5,           0.,           9.
   4236,          0.5,         -0.5,           9.
   4237,          0.5,          0.5,           8.
   4238,          0.5,           0.,           8.
   4239,          0.5,         -0.5,           8.
   4240,          0.5,          0.5,           7.
   4241,          0.5,           0.,           7.
   4242,          0.5,         -0.5,           7.
   4243,          0.5,          0.5,           6.
   4244,          0.5,           0.,           6.
   4245,          0.5,         -0.5,           6.
   4246,          0.5,          0.5,           5.
   4247,          0.5,           0.,           5.
   4248,          0.5,         -0.5,           5.
   4249,          0.5,          0.5,           4.
   4250,          0.5,           0.,           4.
** ... 79 like lines cut
*Element, type=C3D8I
3737, 4264, 4265, 4268, 4267, 4231, 4232, 4235, 4234
3738, 4265, 4266, 4269, 4268, 4232, 4233, 4236, 4235
3739, 4267, 4268, 4271, 4270, 4234, 4235, 4238, 4237
3740, 4268, 4269, 4272, 4271, 4235, 4236, 4239, 4238
3741, 4270, 4271, 4274, 4273, 4237, 4238, 4241, 4240
3742, 4271, 4272, 4275, 4274, 4238, 4239, 4242, 4241
3743, 4273, 4274, 4277, 4276, 4240, 4241, 4244, 4243
3744, 4274, 4275, 4278, 4277, 4241, 4242, 4245, 4244
3745, 4276, 4277, 4280, 4279, 4243, 4244, 4247, 4246
3746, 4277, 4278, 4281, 4280, 4244, 4245, 4248, 4247
3747, 4279, 4280, 4283, 4282, 4246, 4247, 4250, 4249
3748, 4280, 4281, 4284, 4283, 4247, 4248, 4251, 4250
3749, 4282, 4283, 4286, 4285, 4249, 4250, 4253, 4252
3750, 4283, 4284, 4287, 4286, 4250, 4251, 4254, 4253
3751, 4285, 4286, 4289, 4288, 4252, 4253, 4256, 4255
3752, 4286, 4287, 4290, 4289, 4253, 4254, 4257, 4256
3753, 4288, 4289, 4292, 4291, 4255, 4256, 4259, 4258
3754, 4289, 4290, 4293, 4292, 4256, 4257, 4260, 4259
3755, 4291, 4292, 4295, 4294, 4258, 4259, 4262, 4261
3756, 4292, 4293, 4296, 4295, 4259, 4260, 4263, 4262
** ... 20 like lines cut
*Nset, nset=beamRoot-1__PickedSet5, generate
4231, 4329,   1
*Elset, elset=beamRoot-1__PickedSet5, generate
3737, 3776,   1
** Section: Section-1
*Solid Section, elset=beamRoot-1__PickedSet5, material=Material-1
,
*System
*Node
   4429,  2.10556194e-31,          5.5,  -24.3633804
*Nset, nset=impactor-refPt
4429,
*Nset, nset=beamRoot, generate
4231, 4329,   1
*Elset, elset=beamRoot, generate
3737, 3776,   1
*Nset, nset=retained-nodes
4261,4262,4263,4294,4295,4296,4327,4328,4329
*Elset, elset=retained-nodes
3755,3756,3775,3776
*Nset, nset=cosim-std
4261,4262,4263,4294,4295,4296,4327,4328,4329
*Elset, elset=cosim-std
3755,3756,3775,3776
*Nset, nset=fixed-end
4231,4232,4233,4264,4265,4266,4297,4298,4299
*Elset, elset=fixed-end
3737,3738,3757,3758
*Elset, elset=_cosim-std-surf_S5
3755,3756,3775,3776
*Surface, type=ELEMENT, name=cosim-std-surf
_cosim-std-surf_S5, S5
** 
** MATERIALS
** 
*Material, name=Material-1
*Density
1.,
*Elastic
100000., 0.1
** 
** INTERACTION PROPERTIES
** 
*Surface Interaction, name=IntProp-1
1.,
** 
** BOUNDARY CONDITIONS
** 
** Name: fix end Type: Symmetry/Antisymmetry/Encastre
*Boundary
fixed-end, ENCASTRE
** ----------------------------------------------------------------
** 
** STEP: frequency
** 
*Step, name=frequency, perturbation
*Frequency, eigensolver=Lanczos, acoustic coupling=on, normalization=displacement,SIM=NO
20, , , , , 
** 
** BOUNDARY CONDITIONS
** 
** Name: BC-2-fix-retained-nodes Type: Symmetry/Antisymmetry/Encastre
*Boundary
retained-nodes, ENCASTRE
** 
** OUTPUT REQUESTS
** 
*Restart, write, frequency=0
** 
** FIELD OUTPUT: F-Output-2
** 
*Output, field, variable=PRESELECT
*End Step
** ----------------------------------------------------------------
** 
** STEP: Substructure generation
** 
*Step
*substructure generate, name=beam, overwrite, recovery matrix=yes, mass matrix=yes
**
*boundary, op=new
fixed-end, ENCASTRE 
**
*Retained nodal dofs
Retained-nodes,
**
*Select Eigenmodes,generate
1,20,1
**
*End Step
