*HEADING
 Two-Story Frame: B21 elements
** This file is to be used in conjuction with the Superelements or 
** Substructuring Lecture Series Workshop Problem
**
**RESTART,WRITE,OVERLAY
*NODE
       1,          0.,          0.
       2,          0.,        0.24
       3,          0.,        0.48
       4,          0.,        0.72
       5,          0.,        0.96
       6,          0.,         1.2
       7,          0.,        1.44
       8,          0.,        1.68
       9,          0.,        1.92
      10,          0.,        2.16
      11,          0.,         2.4
      12,         8.,         2.4
      13,         8.,        2.16
      14,         8.,        1.92
      15,         8.,        1.68
      16,         8.,        1.44
      17,         8.,         1.2
      18,         8.,        0.96
      19,         8.,        0.72
      20,         8.,        0.48
** ... 40 like lines cut
**
*ELEMENT, TYPE=B21 , ELSET=BEAM
       1,       1,       2
       2,       2,       3
       3,       3,       4
       4,       4,       5
       5,       5,       6
       6,       6,       7
       7,       7,       8
       8,       8,       9
       9,       9,      10
      10,      10,      11
      11,      12,      13
      12,      13,      14
      13,      14,      15
      14,      15,      16
      15,      16,      17
      16,      17,      18
      17,      18,      19
      18,      19,      20
      19,      20,      21
      20,      21,      22
** ... 40 like lines cut
*BEAM SECTION,SECTION=RECT,MATERIAL=STEEL,ELSET=BEAM
0.1 , 0.1
*MATERIAL,NAME=STEEL
*ELASTIC
2.1E11 , 0.3
*DENSITY 
7200., 
*BOUNDARY
1,ENCASTRE
22,ENCASTRE
*ELSET,ELSET=SNOWBOT,GEN
21,30,1
*ELSET,ELSET=SNOWTOP,GEN
51,60,1
**
** step  1: Combined Loading
**
*STEP, NLGEOM
Snow and Wind Loading
*STATIC
1.0,1.0
*DLOAD
SNOWBOT,PY,-100.
SNOWTOP,PY,-235.
*CLOAD
11,1,50.
44,1,100.
*NODE PRINT,FREQ=0
*EL PRINT,FREQ=0
*OUTPUT,FIELD
*NODE OUTPUT
U,
*ENDSTEP
