*Heading
** creep analysis of solder joints by using literature experimental data
**
** PARTS
**
*Part, name=PCB-Substrate
*Node
      1,           0.,          -2.
      2,          0.5,          -2.
      3,           1.,          -2.
      4,          1.5,          -2.
      5,           2.,          -2.
      6,          2.5,          -2.
      7,           3.,          -2.
      8,          3.5,          -2.
      9,           4.,          -2.
     10,          4.5,          -2.
     11,           5.,          -2.
     12,          5.5,          -2.
     13,           6.,          -2.
     14,          6.5,          -2.
     15,           7.,          -2.
     16,          7.5,          -2.
     17,           8.,          -2.
     18,          8.5,          -2.
     19,           9.,          -2.
     20,          9.5,          -2.
** ... 185 like lines cut
*Element, type=CPE4R
  1,   1,   2,  43,  42
  2,   2,   3,  44,  43
  3,   3,   4,  45,  44
  4,   4,   5,  46,  45
  5,   5,   6,  47,  46
  6,   6,   7,  48,  47
  7,   7,   8,  49,  48
  8,   8,   9,  50,  49
  9,   9,  10,  51,  50
 10,  10,  11,  52,  51
 11,  11,  12,  53,  52
 12,  12,  13,  54,  53
 13,  13,  14,  55,  54
 14,  14,  15,  56,  55
 15,  15,  16,  57,  56
 16,  16,  17,  58,  57
 17,  17,  18,  59,  58
 18,  18,  19,  60,  59
 19,  19,  20,  61,  60
 20,  20,  21,  62,  61
** ... 140 like lines cut
*Nset, nset=all, generate
   1,  205,    1
*Elset, elset=all, generate
   1,  160,    1
** Section: Section-pcb
*Solid Section, elset=all, material=PCB
,
*End Part
**  
*Part, name=siliconDie
*Node
      1,          17.,          2.5
      2,         16.5,          2.5
      3,          16.,          2.5
      4,         15.5,          2.5
      5,          15.,          2.5
      6,         14.5,          2.5
      7,          14.,          2.5
      8,         13.5,          2.5
      9,          13.,          2.5
     10,         12.5,          2.5
     11,          12.,          2.5
     12,         11.5,          2.5
     13,          11.,          2.5
     14,         10.5,          2.5
     15,          10.,          2.5
     16,          9.5,          2.5
     17,           9.,          2.5
     18,          8.5,          2.5
     19,           8.,          2.5
     20,          7.5,          2.5
** ... 85 like lines cut
*Element, type=CPE4R
 1,   1,   2,  37,  36
 2,   2,   3,  38,  37
 3,   3,   4,  39,  38
 4,   4,   5,  40,  39
 5,   5,   6,  41,  40
 6,   6,   7,  42,  41
 7,   7,   8,  43,  42
 8,   8,   9,  44,  43
 9,   9,  10,  45,  44
10,  10,  11,  46,  45
11,  11,  12,  47,  46
12,  12,  13,  48,  47
13,  13,  14,  49,  48
14,  14,  15,  50,  49
15,  15,  16,  51,  50
16,  16,  17,  52,  51
17,  17,  18,  53,  52
18,  18,  19,  54,  53
19,  19,  20,  55,  54
20,  20,  21,  56,  55
** ... 48 like lines cut
*Nset, nset=all, generate
   1,  105,    1
*Elset, elset=all, generate
  1,  68,   1
** Section: Section-silicon
*Solid Section, elset=all, material=Silicon
,
*End Part
**  
*Part, name=solderball1
*Node
      1,   3.61617041,  0.109999999
      2,   1.38382959,  0.109999999
      3,          1.5,           0.
      4,          3.5,           0.
      5,   1.38382959,   1.38999999
      6,   3.61617041,   1.38999999
      7,          3.5,          1.5
      8,          1.5,          1.5
      9,   3.45671749,  0.109999999
     10,   3.29726458,  0.109999999
     11,   3.13781166,  0.109999999
     12,   2.97835875,  0.109999999
     13,   2.81890583,  0.109999999
     14,   2.65945292,  0.109999999
     15,          2.5,  0.109999999
     16,   2.34054708,  0.109999999
     17,   2.18109417,  0.109999999
     18,   2.02164125,  0.109999999
     19,   1.86218834,  0.109999999
     20,   1.70273542,  0.109999999
** ... 249 like lines cut
*Element, type=CPE4R
 1,   1,   9,  85,  38
 2,   9,  10,  86,  85
 3,  10,  11,  87,  86
 4,  11,  12,  88,  87
 5,  12,  13,  89,  88
 6,  13,  14,  90,  89
 7,  14,  15,  91,  90
 8,  15,  16,  92,  91
 9,  16,  17,  93,  92
10,  17,  18,  94,  93
11,  18,  19,  95,  94
12,  19,  20,  96,  95
13,  20,  21,  97,  96
14,  21,   2,  22,  97
15,  38,  85,  98,  37
16,  85,  86,  99,  98
17,  86,  87, 100,  99
18,  87,  88, 101, 100
19,  88,  89, 102, 101
20,  89,  90, 103, 102
** ... 219 like lines cut
*Nset, nset=all, generate
   1,  269,    1
*Elset, elset=all, generate
   1,  239,    1
** Section: Section-sball1
*Solid Section, elset=all, material=Solder
,
*End Part
**  
*Part, name=solderball2
*Node
      1,   9.61616993,  0.109999999
      2,   7.38382959,  0.109999999
      3,          7.5,           0.
      4,          9.5,           0.
      5,   7.38382959,   1.38999999
      6,   9.61616993,   1.38999999
      7,          9.5,          1.5
      8,          7.5,          1.5
      9,   9.45671749,  0.109999999
     10,    9.2972641,  0.109999999
     11,   9.13781166,  0.109999999
     12,   8.97835827,  0.109999999
     13,   8.81890583,  0.109999999
     14,   8.65945244,  0.109999999
     15,          8.5,  0.109999999
     16,   8.34054756,  0.109999999
     17,   8.18109417,  0.109999999
     18,   8.02164173,  0.109999999
     19,   7.86218834,  0.109999999
     20,   7.70273542,  0.109999999
** ... 249 like lines cut
*Element, type=CPE4R
 1,   1,   9,  85,  38
 2,   9,  10,  86,  85
 3,  10,  11,  87,  86
 4,  11,  12,  88,  87
 5,  12,  13,  89,  88
 6,  13,  14,  90,  89
 7,  14,  15,  91,  90
 8,  15,  16,  92,  91
 9,  16,  17,  93,  92
10,  17,  18,  94,  93
11,  18,  19,  95,  94
12,  19,  20,  96,  95
13,  20,  21,  97,  96
14,  21,   2,  22,  97
15,  38,  85,  98,  37
16,  85,  86,  99,  98
17,  86,  87, 100,  99
18,  87,  88, 101, 100
19,  88,  89, 102, 101
20,  89,  90, 103, 102
** ... 219 like lines cut
*Nset, nset=all, generate
   1,  269,    1
*Elset, elset=all, generate
   1,  239,    1
** Section: Section-sball2
*Solid Section, elset=all, material=Solder
,
*End Part
**  
*Part, name=soldreball3
*Node
      1,   15.6161699,  0.109999999
      2,   13.3838301,  0.109999999
      3,         13.5,           0.
      4,         15.5,           0.
      5,   13.3838301,   1.38999999
      6,   15.6161699,   1.38999999
      7,         15.5,          1.5
      8,         13.5,          1.5
      9,   15.4567175,  0.109999999
     10,   15.2972641,  0.109999999
     11,   15.1378117,  0.109999999
     12,   14.9783583,  0.109999999
     13,   14.8189058,  0.109999999
     14,   14.6594524,  0.109999999
     15,         14.5,  0.109999999
     16,   14.3405476,  0.109999999
     17,   14.1810942,  0.109999999
     18,   14.0216417,  0.109999999
     19,   13.8621883,  0.109999999
     20,   13.7027359,  0.109999999
** ... 249 like lines cut
*Element, type=CPE4R
 1,   1,   9,  85,  38
 2,   9,  10,  86,  85
 3,  10,  11,  87,  86
 4,  11,  12,  88,  87
 5,  12,  13,  89,  88
 6,  13,  14,  90,  89
 7,  14,  15,  91,  90
 8,  15,  16,  92,  91
 9,  16,  17,  93,  92
10,  17,  18,  94,  93
11,  18,  19,  95,  94
12,  19,  20,  96,  95
13,  20,  21,  97,  96
14,  21,   2,  22,  97
15,  38,  85,  98,  37
16,  85,  86,  99,  98
17,  86,  87, 100,  99
18,  87,  88, 101, 100
19,  88,  89, 102, 101
20,  89,  90, 103, 102
** ... 219 like lines cut
*Nset, nset=all, generate
   1,  269,    1
*Elset, elset=all, generate
   1,  239,    1
** Section: Section-sball3
*Solid Section, elset=all, material=Solder
,
*End Part
**  
**
** ASSEMBLY
**
*Assembly, name=Assembly
**  
*Instance, name=PCB-Substrate-1, part=PCB-Substrate
*End Instance
**  
*Instance, name=siliconDie-1, part=siliconDie
*End Instance
**  
*Instance, name=solderball1-1, part=solderball1
*End Instance
**  
*Instance, name=solderball2-1, part=solderball2
*End Instance
**  
*Instance, name=soldreball3-1, part=soldreball3
*End Instance
**  
*Nset, nset=All, instance=PCB-Substrate-1, generate
   1,  205,    1
*Nset, nset=All, instance=siliconDie-1, generate
   1,  105,    1
*Nset, nset=All, instance=solderball2-1, generate
   1,  269,    1
*Nset, nset=All, instance=solderball1-1, generate
   1,  269,    1
*Nset, nset=All, instance=soldreball3-1, generate
   1,  269,    1
*Elset, elset=All, instance=PCB-Substrate-1, generate
   1,  160,    1
*Elset, elset=All, instance=siliconDie-1, generate
  1,  68,   1
*Elset, elset=All, instance=solderball2-1, generate
   1,  239,    1
*Elset, elset=All, instance=solderball1-1, generate
   1,  239,    1
*Elset, elset=All, instance=soldreball3-1, generate
   1,  239,    1
*Nset, nset=fixpoint, instance=PCB-Substrate-1
 1,
*Elset, elset=leftball-upright, instance=solderball1-1
 70, 83, 84
*Nset, nset=leftside, instance=PCB-Substrate-1, generate
   1,  165,   41
*Nset, nset=leftside, instance=siliconDie-1, generate
  35,  105,   35
*Elset, elset=leftside, instance=PCB-Substrate-1, generate
   1,  121,   40
*Elset, elset=leftside, instance=siliconDie-1
 34, 68
*Elset, elset=midball-upright, instance=solderball2-1
 70, 83, 84
*Elset, elset=rightball-mid, instance=soldreball3-1
 188, 210, 211, 214
*Elset, elset=rightball-upright, instance=soldreball3-1
 70, 83, 84
*Elset, elset=_pcb-up_S3, internal, instance=PCB-Substrate-1, generate
 121,  160,    1
*Surface, type=ELEMENT, name=pcb-up
_pcb-up_S3, S3
*Elset, elset=_sball1-low_S3, internal, instance=solderball1-1, generate
 29,  42,   1
*Surface, type=ELEMENT, name=sball1-low
_sball1-low_S3, S3
*Elset, elset=_sball1-up_S3, internal, instance=solderball1-1, generate
 71,  84,   1
*Surface, type=ELEMENT, name=sball1-up
_sball1-up_S3, S3
*Elset, elset=_sball2-low_S3, internal, instance=solderball2-1, generate
 29,  42,   1
*Surface, type=ELEMENT, name=sball2-low
_sball2-low_S3, S3
*Elset, elset=_sball2-up_S3, internal, instance=solderball2-1, generate
 71,  84,   1
*Surface, type=ELEMENT, name=sball2-up
_sball2-up_S3, S3
*Elset, elset=_sball3-low_S3, internal, instance=soldreball3-1, generate
 29,  42,   1
*Surface, type=ELEMENT, name=sball3-low
_sball3-low_S3, S3
*Elset, elset=_sball3-up_S3, internal, instance=soldreball3-1, generate
 71,  84,   1
*Surface, type=ELEMENT, name=sball3-up
_sball3-up_S3, S3
*Elset, elset=_silicon-low_S3, internal, instance=siliconDie-1, generate
 35,  68,   1
*Surface, type=ELEMENT, name=silicon-low
_silicon-low_S3, S3
** Constraint: Constraint-1
*Tie, name=Constraint-1, adjust=yes
sball1-low, pcb-up
** Constraint: Constraint-2
*Tie, name=Constraint-2, adjust=yes
sball2-low, pcb-up
** Constraint: Constraint-3
*Tie, name=Constraint-3, adjust=yes
sball3-low, pcb-up
** Constraint: Constraint-4
*Tie, name=Constraint-4, adjust=yes
sball1-up, silicon-low
** Constraint: Constraint-5
*Tie, name=Constraint-5, adjust=yes
sball2-up, silicon-low
** Constraint: Constraint-6
*Tie, name=Constraint-6, adjust=yes
sball3-up, silicon-low
*End Assembly
**------------Define Amplitude for cyclic thermal loading---------------
**
** 
** MATERIALS
** 
*Material, name=PCB
*Elastic
27000., 0.39
*Expansion
 1.6e-05,
*Material, name=Silicon
*Elastic
131000., 0.28
*Expansion
 2.7e-06,
*Material, name=Solder
**
**------------------ Define Creep (User)---------------------------------
*Elastic
41600., 0.35
*Expansion
 2.17e-05,
**
**--Define user Table to describe the creep behavior of solder material--
**
** 
** BOUNDARY CONDITIONS
** 
*Boundary
leftside, XSYMM
fixpoint, 2, 2
** 
** 
** STEP: Step-1
** 
*Step, name=Step-1, nlgeom=YES, inc=10000
**
** ------------------Add the first creep analysis step--------------------
** 
** PREDEFINED FIELDS
** 
**
** ----------------Define cyclic thermal loading-------------------------- 
** 
** OUTPUT REQUESTS
** 
*Restart, write, frequency=0
** 
** FIELD OUTPUT
** 
*Output, field, variable=PRESELECT
** 
** HISTORY OUTPUT
** 
*Output, history
*Element Output, elset=leftball-upright
CEEQ, MISES
*Element Output, elset=midball-upright
CEEQ, MISES
*Element Output, elset=rightball-upright
CEEQ, MISES
*Element Output, elset=rightball-mid
CEEQ, MISES
*End Step
** 
** 
** STEP: Step-2
** 
*Step, name=Step-2, nlgeom=YES, inc=10000
**
** --------------------Add the second creep analysis step-----------------
** 
** PREDEFINED FIELDS
** 
**
** ----------------Define cyclic thermal loading-------------------------- 
**
*End Step
**
** 
** STEP: Step-3
** 
*Step, name=Step-3, nlgeom=YES, inc=10000
**
** --------------------Add the third creep analysis step------------------
** 
** PREDEFINED FIELDS
** 
**
** ----------------Define cyclic thermal loading-------------------------- 
** 
*End Step
