** NVH: Acoustic mesh surrounding a truck cab and frame assembly for 
**      sequentially coupled acoustic-structural analysis
** For import into Abaqus/CAE via the workshop script ws_nvh_STR-ACS_seq.py
**
*Heading
*Preprint, echo=NO, model=NO, history=NO, contact=NO
**
** PARTS
**
*Part, name=PART-1
*Node
 500000,   2450.46509,   368.099792,    823.18457
 500001,   2484.71606,   368.105194,   822.162903
 500002,   2517.57007,   367.905396,   812.640503
 500003,   2538.34106,   368.454987,   790.575806
 500004,    2485.4231,   328.342804,   824.100281
 500005,        2518.,   328.232605,   814.242798
 500006,   2451.33789,   327.906494,   825.736084
 500007,   2537.35791,   329.011902,   791.831787
 500008,   2518.43408,   288.582214,   815.848206
 500009,   2452.20996,   287.713104,   828.287598
 500010,   2536.37598,   289.568787,   793.087524
 500011,   2486.12988,   288.456909,   826.047119
 500012,   2453.08301,   247.519806,   830.839111
 500013,   2486.83789,   248.435196,   828.004395
 500014,     2518.875,     248.9543,   817.456177
 500015,   2535.39404,   250.125702,   794.343384
 500016,   2453.95508,   207.326401,   833.390686
 500017,   2487.54907,   208.265305,   829.973999
 500018,   2519.32202,   209.349396,   819.066284
 500019,   2534.41211,   210.682495,   795.599182
** ... 5784 like lines cut
*Element, type=AC3D4
500000, 502130, 500190, 501581, 500181
500001, 502180, 502096, 501298, 501933
500002, 500043, 500044, 501498, 500033
500003, 500977, 501278, 500981, 501356
500004, 501234, 500626, 500660, 501627
500005, 501317, 500475, 500476, 501211
500006, 500405, 500406, 501454, 501599
500007, 501951, 501944, 501204, 501079
500008, 500576, 500601, 500615, 500616
500009, 501205, 500673, 501648, 500680
500010, 500214, 501557, 500206, 500215
500011, 500374, 501368, 500376, 501396
500012, 500875, 501697, 500728, 500879
500013, 501581, 500199, 502118, 502112
500014, 501631, 502486, 500588, 500584
500015, 501498, 501037, 502160, 502093
500016, 501141, 502027, 502050, 502028
500017, 501836, 500478, 500506, 500502
500018, 501104, 500447, 501360, 500537
500019, 500483, 501338, 500574, 501839
** ... 24813 like lines cut
*Element, type=ASI3D3
738281, 502028, 502050, 502027
738282, 501860, 501979, 501980
738283, 501865, 501877, 501976
738284, 501974, 501975, 502067
738285, 501947, 501946, 501944
738286, 501863, 501862, 501982
738287, 501984, 501983, 501988
738288, 501979, 502009, 501980
738289, 501836, 501825, 501838
738290, 501943, 501947, 501944
738291, 501933, 501957, 501953
738292, 501802, 501994, 501990
738293, 501976, 502012, 502014
738294, 501948, 501949, 501950
738295, 501933, 502071, 502068
738296, 502058, 502063, 502057
738297, 502012, 501975, 501996
738298, 501995, 501984, 501988
738299, 501838, 501825, 501826
738300, 501828, 501848, 501827
** ... 3539 like lines cut
*Elset, elset=INAIR, generate
 500000,  510396,       1
*Elset, elset=EXTAIR, generate
 700000,  714435,       1
*Elset, elset=_SKIN-INAIRASI, internal, generate
 738281,  738892,       1
*Elset, elset=_SKIN-SEATASI, internal, generate
 738893,  740876,       1
*Elset, elset=_SKIN-EXTAIRCABINASI, internal, generate
 740877,  741433,       1
*Elset, elset=_SKIN-EXTAIREGASI, internal, generate
 741434,  741839,       1
** Section: Section-1-INAIR
*Solid Section, elset=INAIR, material=INTAIR

** Section: Section-2-EXTAIR
*Solid Section, elset=EXTAIR, material=EXTAIR

** Section: Section-3-_SKIN-INAIRASI
*Interface, name=Section-3-_SKIN-INAIRASI, elset=_SKIN-INAIRASI
1.
** Section: Section-4-_SKIN-SEATASI
*Interface, name=Section-4-_SKIN-SEATASI, elset=_SKIN-SEATASI
1.
** Section: Section-5-_SKIN-EXTAIRCABINASI
*Interface, name=Section-5-_SKIN-EXTAIRCABINASI, elset=_SKIN-EXTAIRCABINASI
1.
** Section: Section-6-_SKIN-EXTAIREGASI
*Interface, name=Section-6-_SKIN-EXTAIREGASI, elset=_SKIN-EXTAIREGASI
1.
*End Part
**  
**
** ASSEMBLY
**
*Assembly, name=Assembly
**  
*Instance, name=PART-1-1, part=PART-1
*End Instance
**  
*Nset, nset=CABIN_BOTTOM, instance=PART-1-1
 702443,
*Nset, nset=CABIN_FRONT, instance=PART-1-1
 700980,
*Nset, nset=CABIN_REAR, instance=PART-1-1
 700060,
*Nset, nset=CABIN_SIDE, instance=PART-1-1
 702313,
*Nset, nset=CABIN_TOP, instance=PART-1-1
 700970,
*Nset, nset=EG_BOTTOM, instance=PART-1-1
 700720,
*Nset, nset=EG_ACS, instance=PART-1-1
 701460, 701461, 701462, 702563, 702564, 702565, 702566, 702567, 702568, 702569, 702570, 702571, 702572, 702573, 702574, 702575
 702576, 702577, 702578, 702579, 702580, 702581, 702582, 702583, 702584, 702585, 702586, 702587, 702588, 702589, 702590, 702591
 702592, 702593, 702594, 702595, 702596, 702597, 702598, 702599, 702600, 702601, 702602, 702603, 702604, 702605, 702606, 702607
 702608, 702609, 702610, 702611, 702612, 702613, 702614, 702615, 702616, 702617, 702618, 702619, 702620, 702621, 702622, 702623
 702624, 702625, 702626, 702627, 702628, 702629, 702630, 702631, 702632, 702633, 702634, 702635, 702636, 702637, 702638, 702639
 702640, 702641, 702642, 702643, 702644, 702645, 702646, 702647, 702648, 702649, 702650, 702651, 702652, 702653, 702654, 702655
 702656, 702657, 702658, 702659, 702660, 702661, 702662, 702663, 702664, 702665, 702666, 702667, 702668, 702669, 702670, 702671
 702672, 702673, 702674, 702675, 702676, 702677, 702678, 702679, 702680, 702681, 702682, 702683, 702684, 702685, 702686, 702687
 702688, 702689, 702690, 702691, 702692, 702693, 702694, 702695, 702696, 702697, 702698, 702699, 702700, 702701, 702702, 702703
 702704, 702705, 702706, 702707, 702708, 702709, 702710, 702711, 702712, 702713, 702714, 702715, 702716, 702717, 702718, 702719
 702720, 702721, 702722, 702723, 702724, 702725, 702726, 702727, 702728, 702729, 702730, 702731, 702732, 702733, 702734, 702735
 702736, 702737, 702738, 702739, 702740, 702741, 702742, 702743, 702744, 702745, 702746, 702747, 702748, 702749, 702750, 702751
 702752, 702753, 702754, 702755, 702756, 702757, 702758, 702759, 702760, 702761, 702762, 702763, 702764, 702765, 702766, 702767
 702768, 702769, 702770, 702771, 702772, 702773, 702774, 702775, 702776, 702777, 702778, 702779, 702780, 702781, 702782, 702783
 702784, 702785, 702786, 702787
*Nset, nset=EG_FRONT, instance=PART-1-1
 700982,
*Nset, nset=EG_SIDE, instance=PART-1-1
 701596,
*Nset, nset=EG_TOP, instance=PART-1-1
 702401,
*Nset, nset=INT-EAR-RESP, instance=PART-1-1
 501323,
*Nset, nset=CAB_EXTERIOR_ACS, instance=PART-1-1
 700000, 700011, 700020, 700021, 700031, 700038, 700042, 700045, 700050, 700052, 700063, 700066, 700073, 700086, 700092, 700105
 700107, 700124, 700129, 700147, 700162, 700175, 700197, 700257, 700259, 700266, 700281, 700283, 700299, 700317, 700351, 700356
 700360, 700370, 700607, 700611, 700623, 700625, 700632, 700665, 700669, 700672, 700677, 700686, 700687, 700692, 700696, 700702
 700704, 700708, 700711, 700713, 700714, 700721, 700731, 700733, 700735, 700737, 700740, 700747, 700753, 700757, 700758, 700774
 700779, 700787, 700794, 700796, 700805, 700815, 700817, 700822, 700824, 700825, 700829, 700831, 700832, 700833, 700835, 700841
 700848, 700850, 700853, 700859, 700860, 700864, 700880, 700882, 700885, 700886, 700887, 700889, 700896, 700897, 700904, 700921
 700923, 700936, 700943, 700952, 700954, 700955, 700968, 700972, 700976, 700978, 700981, 700985, 700988, 700989, 700994, 701009
 701020, 701387, 701388, 701600, 701601, 701602, 701609, 701623, 701629, 701634, 701635, 701640, 701642, 701646, 701649, 701650
 701660, 701678, 701681, 701683, 701685, 701691, 701694, 701701, 701702, 701707, 701709, 701716, 701721, 701724, 701733, 701739
 701743, 701745, 701747, 701749, 701753, 701754, 701775, 701788, 701790, 701796, 701814, 701819, 701820, 701821, 701827, 701842
 701844, 701845, 701857, 701858, 701873, 701874, 701893, 701898, 701900, 701901, 701902, 701918, 701924, 701933, 701946, 701949
 701952, 701960, 701968, 701975, 701983, 701984, 701985, 701999, 702003, 702005, 702006, 702010, 702016, 702017, 702037, 702039
 702044, 702045, 702051, 702053, 702054, 702055, 702060, 702062, 702070, 702071, 702073, 702074, 702081, 702084, 702089, 702092
 702095, 702104, 702106, 702109, 702111, 702129, 702132, 702133, 702139, 702141, 702148, 702156, 702157, 702167, 702169, 702173
 702177, 702179, 702181, 702194, 702195, 702198, 702200, 702201, 702202, 702206, 702217, 702236, 702249, 702252, 702257, 702258
 702259, 702261, 702282, 702299, 702308, 702327, 702341, 702343, 702348, 702352, 702354, 702362, 702365, 702367, 702374, 702377
 702378, 702383, 702385, 702386, 702390, 702397, 702411, 702415, 702425, 702435, 702436, 702442, 702452, 702456, 702462, 702467
 702478, 702479, 702483, 702561, 702788, 702791, 702800, 702804, 702805, 702808, 702815, 702816, 702886, 702890, 702962, 703018
 703037, 703067, 703068, 703069, 703089, 703113, 703115
*Nset, nset=OUTPUT, instance=PART-1-1
 501323, 700060, 700720, 700970, 700980, 700982, 701596, 702313, 702401, 702443
*Nset, nset=CAB_INTERIOR_ACS, instance=PART-1-1, generate
 501750,  502073,       1
*Nset, nset=SEAT_ACS, instance=PART-1-1, generate
 500000,  501022,       1
*Nset, nset=SYM_INAIR, instance=PART-1-1
 500032, 500033, 500034, 500035, 500044, 500077, 500078, 500079, 500080, 500182, 500191, 500200, 500209, 500218, 500227, 500383
 500384, 500385, 500386, 500415, 500416, 500417, 500418, 500471, 500472, 500473, 500482, 500515, 500516, 500517, 500518, 500607
 500624, 500637, 500644, 500651, 500658, 500665, 500678, 500685, 500692, 500693, 500700, 500707, 500714, 500721, 500734, 500741
 500748, 500755, 500762, 500763, 500769, 500776, 500783, 500790, 500797, 500804, 500816, 501021, 501761, 501762, 501787, 501788
 501789, 501792, 501806, 501820, 501824, 501825, 501826, 501827, 501828, 501829, 501853, 501854, 501889, 501894, 501909, 501910
 501911, 501926, 501928, 501937, 501955, 501956, 501957, 502016, 502025, 502034, 502036, 502037, 502046, 502068, 502074, 502075
 502076, 502077, 502078, 502079, 502080, 502081, 502082, 502083, 502084, 502085, 502086, 502087, 502088, 502089, 502090, 502091
 502092, 502093, 502094, 502095, 502096, 502097, 502098, 502099, 502100, 502101, 502102, 502103, 502104, 502105, 502106, 502107
 502108, 502109, 502110, 502111, 502112, 502113, 502114, 502115, 502116, 502117, 502118, 502119, 502120, 502121, 502122, 502123
 502124, 502125, 502126, 502127, 502128, 502129, 502130, 502131, 502132, 502133, 502134, 502135, 502136, 502137, 502138, 502139
 502140, 502141, 502142, 502143, 502144, 502145, 502146, 502147, 502148, 502149, 502150, 502151, 502152, 502153, 502154, 502155
 502156, 502157, 502158, 502159, 502160, 502161, 502162, 502163, 502164, 502165, 502166, 502167, 502168, 502169, 502170, 502171
 502172, 502173, 502174, 502175, 502176, 502177, 502178, 502179, 502180, 502181, 502182, 502183, 502184, 502185, 502186, 502187
 502188, 502189, 502190, 502191, 502192, 502193, 502194, 502195, 502196, 502197, 502198, 502199, 502200, 502201, 502202, 502203
 502204, 502205, 502206, 502207, 502208, 502209, 502210, 502211, 502212, 502213, 502214, 502215, 502216
*Elset, elset=_INSIDE_INAIR_S1, internal, instance=PART-1-1
 500283, 500288, 500292, 500654, 500669, 500823, 500946, 501806, 502462, 502817, 503217, 503362, 503386, 503996, 504019, 504191
 504574, 504592, 504993, 505061, 505210, 505399, 505414, 505839, 505897, 506057, 506135, 506170, 506189, 506422, 506443, 506667
 506684, 506895, 506900, 506903, 506915, 506934, 506940, 506946, 506949, 506960, 506964, 506970, 506981, 506996, 507001, 507028
 507036, 507037, 507042, 507043, 507052, 507067, 507076, 507094, 507128, 507185, 507203, 507204, 507225, 507248, 507276, 507315
 507322, 507327, 507364, 507374, 507402, 507472, 507499, 507507, 507525, 507545, 507571, 507574, 507596, 507611, 507628, 507633
 507634, 507660, 507661, 507720, 507732, 507738, 507747, 507749, 507757, 507773, 507813, 507849, 507856, 507948, 508132, 508142
 508146, 508273, 508309, 508348, 508399, 508408, 508409, 508459, 508516, 508550, 508647, 508678, 508724, 508783, 508801, 508836
 508838, 508863, 508925, 508972, 508979, 508983, 509022, 509035, 509075, 509162, 509165, 509195, 509199, 509235, 509239, 509266
 509277, 509282, 509295, 509345, 509356, 509367, 509399, 509424, 509468, 509504, 509528, 509594, 509630, 509648, 509655, 509665
 509696, 509697, 509744, 509757, 509777, 509785, 509855, 509872, 509880, 509914, 509917, 509989, 510023, 510042, 510049, 510065
 510069, 510090, 510106, 510159, 510233, 510241, 510269, 510319, 510338, 510342
*Elset, elset=_INSIDE_INAIR_S2, internal, instance=PART-1-1
 500002, 500029, 500074, 500221, 500234, 500277, 500278, 500282, 500562, 502297, 502400, 502444, 502466, 503417, 504987, 505173
 505250, 505697, 505727, 505733, 506164, 506173, 506298, 506718, 506868, 507453, 507482, 507515, 507801, 507877, 507946, 507950
 508002, 508145, 508447, 508514, 508533, 508541, 508569, 508570, 508597, 508598, 508655, 508700, 508746, 508821, 508840, 508858
 508974, 508988, 509095, 509264, 509271, 509272, 509286, 509297, 509416, 509429, 509435, 509460, 509469, 509475, 509480, 509511
 509530, 509574, 509642, 509653, 509664, 509728, 509888, 509933, 510066, 510068, 510073, 510083, 510084, 510096, 510121, 510122
 510132, 510188, 510207, 510273
*Elset, elset=_INSIDE_INAIR_S4, internal, instance=PART-1-1
 500008, 500010, 500012, 500035, 500048, 500061, 500066, 500092, 500093, 500096, 500103, 500112, 500125, 500130, 500152, 500158
 500184, 500215, 500217, 500271, 500279, 500286, 500326, 500406, 500423, 500443, 500480, 500495, 500517, 500526, 500528, 500712
 500779, 500790, 500796, 500842, 500850, 500925, 502169, 502264, 502526, 502551, 503004, 503011, 503172, 503174, 503186, 503197
 503316, 503344, 503365, 503477, 503558, 503752, 503845, 503915, 504096, 504164, 504472, 504575, 504704, 504790, 504833, 504845
 504934, 504944, 505115, 505122, 505127, 505149, 505212, 505217, 505234, 505257, 505279, 505306, 505377, 505390, 505401, 505445
 505465, 505485, 505588, 505642, 505655, 505685, 505748, 505755, 505764, 506022, 506042, 506067, 506073, 506082, 506132, 506160
 506176, 506224, 506251, 506327, 506331, 506430, 506459, 506497, 506510, 506522, 506570, 506576, 506619, 506620, 506627, 506634
 506650, 506716, 506748, 506846, 506867, 506878, 506930, 506939, 506994, 507007, 507019, 507035, 507038, 507047, 507113, 507115
 507126, 507136, 507163, 507183, 507220, 507221, 507251, 507280, 507307, 507316, 507333, 507398, 507400, 507412, 507419, 507436
 507464, 507468, 507478, 507484, 507487, 507488, 507489, 507505, 507557, 507564, 507565, 507589, 507608, 507658, 507667, 507744
 507766, 507791, 507844, 507850, 507852, 507883, 507894, 507919, 507942, 507990, 508012, 508039, 508059, 508062, 508072, 508079
 508149, 508190, 508269, 508270, 508320, 508338, 508343, 508366, 508404, 508432, 508468, 508472, 508596, 508609, 508646, 508667
 508678, 508711, 508717, 508729, 508811, 508815, 508816, 508835, 508839, 508841, 508843, 508851, 508861, 508862, 508873, 508905
 508927, 508972, 508973, 508983, 508994, 509010, 509013, 509105, 509114, 509117, 509134, 509145, 509152, 509170, 509174, 509189
 509237, 509251, 509261, 509265, 509268, 509270, 509283, 509284, 509307, 509311, 509326, 509332, 509349, 509380, 509393, 509439
 509445, 509448, 509454, 509521, 509535, 509555, 509561, 509573, 509592, 509613, 509615, 509649, 509654, 509659, 509665, 509682
 509701, 509702, 509736, 509746, 509762, 509774, 509779, 509781, 509801, 509808, 509812, 509827, 509841, 509845, 509855, 509859
 509864, 509868, 509870, 509871, 509878, 509883, 509884, 509922, 509991, 510004, 510015, 510024, 510055, 510063, 510074, 510084
 510104, 510111, 510120, 510135, 510156, 510162, 510185, 510201, 510222, 510224, 510246, 510272, 510292, 510296, 510315, 510319
 510352, 510359, 510367, 510371, 510381
*Elset, elset=_INSIDE_INAIR_S3, internal, instance=PART-1-1
 500017, 500028, 500034, 500047, 500050, 500068, 500094, 500095, 500111, 500119, 500124, 500129, 500153, 500159, 500165, 500168
 500170, 500209, 500216, 500219, 500235, 500237, 500242, 500258, 500272, 500274, 500284, 500290, 500296, 500299, 500304, 500335
 500404, 500434, 500435, 500438, 500439, 500464, 500466, 500471, 500477, 500494, 500513, 500569, 500606, 500621, 500645, 500698
 500724, 500753, 500771, 500787, 500857, 500860, 500952, 501314, 501328, 501349, 501357, 501372, 501410, 501583, 501651, 501695
 501797, 502035, 502041, 502077, 502119, 502199, 502273, 502324, 502338, 502342, 502410, 502449, 502463, 502468, 502478, 502517
 502595, 502636, 502720, 502763, 502779, 502806, 502826, 502840, 503063, 503069, 503099, 503109, 503160, 503163, 503173, 503184
 503195, 503198, 503206, 503227, 503236, 503280, 503366, 503378, 503421, 503425, 503426, 503427, 503434, 503457, 503463, 503481
 503495, 503510, 503515, 503521, 503532, 503538, 503549, 503554, 503571, 503574, 503581, 503584, 503589, 503627, 503631, 503639
 503644, 503648, 503652, 503660, 503666, 503671, 503681, 503682, 503686, 503692, 503705, 503731, 503735, 503737, 503739, 503761
 503798, 503837, 503856, 503870, 503871, 503874, 503904, 503920, 503928, 503931, 503936, 504032, 504045, 504049, 504072, 504079
 504132, 504134, 504156, 504210, 504222, 504238, 504255, 504260, 504265, 504328, 504344, 504377, 504388, 504397, 504400, 504401
 504450, 504465, 504468, 504470, 504479, 504512, 504518, 504532, 504533, 504541, 504543, 504561, 504585, 504586, 504593, 504597
 504599, 504608, 504611, 504620, 504621, 504622, 504626, 504631, 504633, 504634, 504644, 504645, 504652, 504658, 504660, 504661
 504668, 504671, 504679, 504685, 504690, 504691, 504697, 504707, 504708, 504713, 504734, 504738, 504744, 504747, 504752, 504753
 504757, 504758, 504763, 504767, 504770, 504786, 504787, 504788, 504795, 504806, 504809, 504814, 504828, 504829, 504838, 504840
 504850, 504851, 504869, 504870, 504874, 504878, 504880, 504886, 504888, 504890, 504891, 504896, 504897, 504906, 504909, 504930
 504932, 504947, 504954, 504967, 504968, 504969, 504981, 504982, 504983, 505006, 505007, 505011, 505016, 505024, 505056, 505063
 505078, 505080, 505089, 505091, 505102, 505104, 505113, 505137, 505142, 505144, 505151, 505168, 505171, 505186, 505194, 505221
 505237, 505261, 505271, 505272, 505275, 505308, 505323, 505328, 505329, 505341, 505345, 505368, 505371, 505383, 505396, 505397
 505398, 505402, 505403, 505411, 505413, 505418, 505421, 505424, 505434, 505436, 505450, 505469, 505475, 505490, 505494, 505499
** ... 69 like lines cut
*Elset, elset=_OUTSIDE_INAIR_S1, internal, instance=PART-1-1
 502540, 505177, 505207, 506858, 506871, 506884, 506890, 506979, 507008, 507194, 507386, 507440, 507795, 507843, 507861, 508120
 508208, 508373, 508483, 508531, 508556, 508625, 508748, 508781, 508899, 508958, 509053, 509188, 509190, 509197, 509379, 509397
 509538, 509557, 509569, 509570, 509694, 509704, 509733, 509789, 509803, 510035, 510045, 510071, 510138, 510215, 510320
*Elset, elset=_OUTSIDE_INAIR_S2, internal, instance=PART-1-1
 500280, 500700, 500786, 502626, 504974, 506495, 507427, 507592, 507659, 507718, 508362, 508557, 508635, 508656, 508756, 508781
 508893, 509029, 509054, 509061, 509065, 509073, 509200, 509212, 509330, 509353, 509369, 509516, 509517, 509536, 509538, 509539
 509540, 509570, 509661, 509694, 509707, 509782, 509940, 509951, 509957, 509958, 509980, 509997, 510005, 510095, 510138, 510169
 510234, 510370, 510396
*Elset, elset=_OUTSIDE_INAIR_S4, internal, instance=PART-1-1
 500069, 500128, 500131, 500287, 500289, 500341, 500413, 500484, 500625, 500749, 500863, 500873, 500995, 501694, 502113, 502302
 502964, 504247, 504469, 505155, 505501, 505602, 505840, 505886, 506113, 506405, 506971, 507079, 507143, 507157, 507337, 507342
 507384, 507530, 507669, 507873, 507908, 508024, 508034, 508136, 508235, 508300, 508328, 508336, 508356, 508406, 508465, 508482
 508531, 508619, 508750, 508752, 508805, 508901, 508906, 509047, 509056, 509061, 509073, 509171, 509197, 509198, 509365, 509379
 509491, 509522, 509540, 509558, 509577, 509591, 509620, 509625, 509643, 509661, 509718, 509752, 509753, 509782, 509951, 509954
 509961, 509966, 509978, 509980, 509998, 510109, 510150, 510180, 510219, 510285, 510390
*Elset, elset=_OUTSIDE_INAIR_S3, internal, instance=PART-1-1
 500016, 500036, 500104, 500105, 500127, 500128, 500131, 500160, 500228, 500295, 500313, 500353, 500364, 500444, 500445, 500447
 500452, 500467, 500519, 500563, 500587, 500622, 500632, 500637, 500659, 500671, 500697, 500718, 500752, 500757, 500791, 500810
 500834, 500854, 500876, 501106, 501186, 501256, 501285, 501311, 501585, 501601, 501724, 501736, 502085, 502202, 502298, 502328
 502344, 502388, 502431, 502470, 502488, 502523, 502742, 503025, 503059, 503070, 503101, 503110, 503155, 503167, 503224, 503318
 503354, 503356, 503363, 503372, 503392, 503396, 503446, 503458, 503516, 503762, 503778, 503812, 503820, 503853, 503901, 503925
 504013, 504082, 504216, 504301, 504499, 504534, 504549, 504581, 504659, 504711, 504759, 504764, 504777, 504908, 504910, 504919
 504942, 504961, 504975, 505018, 505033, 505037, 505093, 505116, 505119, 505139, 505228, 505241, 505296, 505322, 505326, 505353
 505419, 505433, 505437, 505444, 505451, 505476, 505537, 505580, 505592, 505612, 505623, 505650, 505670, 505725, 505751, 505793
 505796, 505798, 505813, 505832, 505834, 505840, 505854, 505894, 505928, 505960, 506025, 506036, 506104, 506107, 506130, 506154
 506230, 506235, 506237, 506245, 506252, 506270, 506281, 506284, 506353, 506369, 506418, 506530, 506550, 506564, 506623, 506640
 506661, 506687, 506728, 506771, 506787, 506791, 506802, 506812, 506866, 506870, 506943, 507090, 507091, 507099, 507102, 507106
 507107, 507108, 507109, 507111, 507118, 507133, 507135, 507144, 507162, 507174, 507239, 507242, 507266, 507268, 507271, 507275
 507285, 507298, 507308, 507328, 507330, 507365, 507376, 507406, 507439, 507448, 507465, 507466, 507479, 507480, 507510, 507512
 507526, 507554, 507585, 507591, 507602, 507632, 507665, 507683, 507686, 507690, 507703, 507712, 507726, 507739, 507752, 507759
 507772, 507780, 507783, 507818, 507819, 507837, 507845, 507882, 507899, 507911, 507916, 507920, 507947, 507954, 507956, 507970
 507971, 507984, 507997, 508017, 508020, 508053, 508058, 508063, 508067, 508082, 508084, 508088, 508089, 508099, 508124, 508155
 508192, 508200, 508232, 508257, 508259, 508262, 508268, 508300, 508304, 508308, 508313, 508319, 508351, 508355, 508363, 508402
 508410, 508426, 508428, 508429, 508433, 508448, 508450, 508479, 508493, 508538, 508543, 508545, 508559, 508591, 508593, 508615
 508627, 508631, 508633, 508638, 508640, 508641, 508642, 508643, 508656, 508657, 508662, 508685, 508738, 508749, 508754, 508759
 508765, 508767, 508774, 508778, 508779, 508796, 508809, 508812, 508814, 508819, 508820, 508848, 508850, 508872, 508892, 508896
** ... 7 like lines cut
*Elset, elset=_RAD_S1, internal, instance=PART-1-1
 707368, 707755, 708393, 708737, 709707, 709831, 709851, 709853, 709927, 709943, 709958, 709965, 709984, 709999, 710020, 710128
 710131, 710134, 710142, 710145, 710146, 710152, 710156, 710159, 710167, 710218, 710219, 710221, 710229, 710231, 710235, 710247
 710269, 710275, 710290, 710292, 710321, 710328, 710342, 710351, 710355, 710357, 710365, 710368, 710443, 710458, 710462, 710494
 710638, 710665, 710669, 711001, 711018, 711275, 711350, 711702, 711707, 711880, 712022, 712068, 712083, 712188, 712281, 712681
 712683, 712738, 712739, 712879, 713087, 713098, 713196, 713267, 713272, 713273, 713282, 713366, 713449, 713456, 713509, 713583
 713592, 713632, 713646, 713669, 713716, 713739, 713794, 713845, 713973, 713976, 714088, 714093, 714127, 714269, 714280, 714326
*Elset, elset=_RAD_S2, internal, instance=PART-1-1
 705247, 706618, 709849, 709966, 710018, 710023, 710291, 710690, 710730, 711274, 711517, 711638, 711669, 711737, 711755, 711847
 711920, 711954, 712122, 712303, 712324, 712325, 712338, 712358, 712502, 712591, 712751, 712805, 712894, 712991, 713009, 713053
 713177, 713198, 713274, 713362, 713680, 713684, 713851, 713869, 713891, 713952, 714087, 714246, 714251, 714325
*Elset, elset=_RAD_S4, internal, instance=PART-1-1
 700044, 700053, 700081, 700107, 700370, 700383, 700486, 700812, 700817, 700895, 701039, 705556, 705726, 705790, 705903, 706811
 707258, 707267, 707432, 707561, 707623, 707644, 707669, 707762, 707934, 707999, 708121, 708561, 709176, 709279, 709523, 709594
 709651, 709920, 710095, 710097, 710100, 710173, 710345, 710346, 710418, 710448, 710456, 710486, 710497, 710515, 710519, 710521
 710532, 710710, 710737, 710768, 710804, 710819, 710823, 710938, 710951, 711084, 711131, 711168, 711219, 711315, 711375, 711411
 711465, 711466, 711586, 711598, 711599, 711685, 711694, 711772, 711777, 711778, 711782, 711816, 711858, 711865, 711917, 712004
 712034, 712064, 712069, 712086, 712132, 712151, 712185, 712190, 712212, 712221, 712248, 712351, 712355, 712392, 712432, 712448
 712455, 712494, 712524, 712548, 712551, 712569, 712618, 712630, 712655, 712711, 712724, 712737, 712747, 712811, 712812, 712828
 712871, 712876, 712919, 712924, 712947, 712957, 712968, 712979, 712981, 713010, 713076, 713193, 713341, 713398, 713457, 713474
 713513, 713548, 713562, 713571, 713572, 713600, 713624, 713683, 713722, 713725, 713782, 713863, 713872, 713911, 713949, 714027
 714078, 714080, 714153, 714178, 714199, 714209, 714228, 714292
*Elset, elset=_RAD_S3, internal, instance=PART-1-1
 700252, 700587, 700608, 700698, 700792, 700864, 700967, 703639, 703959, 704284, 704334, 704928, 705254, 705328, 705511, 705585
 705586, 705722, 705829, 705852, 705930, 705934, 705977, 706342, 706352, 706601, 706616, 706710, 706908, 707065, 707093, 707097
 707149, 707177, 707212, 707215, 707272, 707299, 707326, 707336, 707352, 707363, 707371, 707391, 707406, 707421, 707424, 707445
 707450, 707455, 707457, 707499, 707533, 707563, 707567, 707575, 707606, 707621, 707646, 707668, 707690, 707702, 707716, 707780
 707815, 707840, 707908, 707932, 708043, 708061, 708081, 708100, 708136, 708165, 708218, 708247, 708258, 708296, 708371, 708444
 708481, 708541, 708576, 708577, 708603, 708644, 708651, 708729, 708754, 708773, 708790, 708809, 708828, 708851, 708889, 708908
 709011, 709015, 709028, 709030, 709055, 709092, 709098, 709100, 709104, 709108, 709119, 709168, 709221, 709254, 709378, 709417
 709422, 709478, 709483, 709488, 709541, 709598, 709618, 709674, 709693, 709696, 709723, 709733, 709744, 709749, 709766, 709781
 709787, 709812, 709840, 709841, 709852, 709860, 709864, 709865, 709914, 709924, 709928, 709929, 709930, 709950, 709957, 709974
 709990, 710000, 710041, 710051, 710055, 710058, 710059, 710070, 710071, 710077, 710082, 710083, 710098, 710101, 710125, 710154
 710158, 710172, 710195, 710196, 710240, 710243, 710251, 710256, 710283, 710288, 710297, 710302, 710303, 710304, 710320, 710322
 710326, 710335, 710337, 710349, 710353, 710374, 710384, 710400, 710402, 710409, 710410, 710419, 710420, 710421, 710436, 710446
 710450, 710457, 710461, 710480, 710530, 710543, 710559, 710566, 710581, 710602, 710603, 710607, 710621, 710624, 710648, 710661
 710689, 710698, 710700, 710702, 710703, 710709, 710718, 710728, 710735, 710760, 710784, 710788, 710793, 710809, 710814, 710822
 710866, 710880, 710939, 710963, 710994, 710996, 711019, 711021, 711025, 711036, 711041, 711048, 711070, 711075, 711081, 711088
 711100, 711105, 711107, 711112, 711113, 711122, 711126, 711152, 711154, 711159, 711174, 711175, 711180, 711183, 711191, 711198
 711202, 711206, 711214, 711218, 711220, 711235, 711248, 711250, 711254, 711261, 711296, 711300, 711305, 711348, 711355, 711356
 711359, 711367, 711370, 711382, 711383, 711384, 711395, 711415, 711417, 711424, 711428, 711434, 711435, 711458, 711483, 711488
 711495, 711524, 711525, 711537, 711546, 711549, 711552, 711554, 711555, 711559, 711560, 711564, 711581, 711592, 711605, 711606
 711623, 711625, 711639, 711644, 711656, 711675, 711681, 711703, 711710, 711728, 711731, 711741, 711750, 711771, 711775, 711780
** ... 17 like lines cut
*Elset, elset=_ROAD_S1, internal, instance=PART-1-1
 700424, 710556, 710882, 710909, 710911, 711085, 711328, 711345, 711623, 711645, 711669, 711787, 711848, 711975, 712073, 712122
 712172, 712435, 712453, 712533, 712550, 712746, 712751, 712830, 712991, 713000, 713047, 713684, 713759, 714162, 714178, 714221
 714251,
*Elset, elset=_ROAD_S2, internal, instance=PART-1-1
 704065, 708074, 708248, 709735, 710025, 710438, 711068, 711775, 711778, 711788, 711952, 712220, 712681, 712831, 712954, 713272
 713373, 713905, 714131, 714226, 714228, 714292
*Elset, elset=_ROAD_S4, internal, instance=PART-1-1
 700264, 700447, 700561, 700570, 701296, 703672, 703775, 704284, 708197, 709210, 709308, 709909, 710016, 710126, 710184, 710210
 710257, 710278, 710289, 710569, 710853, 711380, 711473, 711517, 711776, 711953, 712048, 712127, 712213, 712317, 712338, 712339
 712864, 712927, 713025, 713061, 713093, 713127, 713646, 713662, 713663, 714181, 714201, 714315, 714320
*Elset, elset=_ROAD_S3, internal, instance=PART-1-1
 700161, 700510, 700624, 700772, 700891, 700893, 701004, 702057, 702287, 702480, 703284, 703763, 704173, 704269, 704279, 704330
 705068, 705175, 705234, 705840, 707175, 707221, 707372, 707444, 707486, 707565, 707884, 707944, 708076, 708147, 708185, 708304
 708408, 708413, 708569, 708608, 708894, 708896, 708955, 709078, 709262, 709324, 709345, 709428, 709493, 709522, 709567, 709667
 709677, 709836, 709880, 709941, 709945, 709960, 709964, 709978, 709992, 710017, 710047, 710078, 710084, 710104, 710107, 710174
 710186, 710198, 710273, 710308, 710426, 710428, 710437, 710485, 710520, 710523, 710565, 710599, 710601, 710645, 710660, 710664
 710736, 710754, 710757, 710786, 710803, 710817, 710867, 710887, 710919, 710971, 710982, 710995, 711026, 711038, 711044, 711061
 711062, 711063, 711067, 711127, 711130, 711134, 711142, 711188, 711269, 711324, 711325, 711352, 711403, 711404, 711413, 711449
 711472, 711480, 711485, 711507, 711516, 711521, 711534, 711536, 711548, 711561, 711562, 711566, 711569, 711621, 711643, 711663
 711706, 711767, 711794, 711807, 711809, 711814, 711815, 711820, 711835, 711836, 711847, 711852, 711863, 711876, 711885, 711893
 711910, 711918, 711923, 711978, 712002, 712009, 712021, 712028, 712033, 712072, 712152, 712156, 712182, 712236, 712284, 712291
 712314, 712319, 712343, 712384, 712411, 712416, 712458, 712471, 712496, 712507, 712515, 712518, 712519, 712539, 712559, 712599
 712615, 712629, 712657, 712668, 712671, 712690, 712713, 712714, 712775, 712779, 712784, 712790, 712820, 712862, 712874, 712935
 712971, 712994, 713015, 713021, 713032, 713036, 713041, 713086, 713126, 713147, 713165, 713177, 713227, 713236, 713249, 713277
 713308, 713324, 713331, 713344, 713374, 713387, 713405, 713426, 713434, 713440, 713448, 713472, 713542, 713628, 713685, 713688
 713731, 713733, 713762, 713807, 713934, 713969, 713976, 713984, 713999, 714026, 714062, 714110, 714112, 714124, 714134, 714148
 714174, 714200, 714219, 714225, 714233, 714252, 714269, 714420
*Elset, elset=_EXT_CABIN_S1, internal, instance=PART-1-1
 700034, 700514, 700919, 706297, 707183, 709467, 709827, 709846, 709847, 709858, 709867, 709871, 709883, 709935, 709938, 709944
 709986, 710127, 710137, 710175, 710254, 710282, 710331, 710377, 710464, 710476, 710510, 710516, 710517, 710527, 710533, 710662
 710883, 710893, 710896, 711053, 711444, 711519, 711577, 712096, 712150, 712333, 712356, 712438, 712440, 712532, 712644, 712802
 713013, 713019, 713137, 713263, 713563, 714364
*Elset, elset=_EXT_CABIN_S2, internal, instance=PART-1-1
 700051, 708088, 708294, 708823, 710397, 710795, 710842, 710895, 711223, 711294, 711583, 711604, 711671, 711789, 711896, 712311
 712486, 713019, 713045, 713108, 713138, 713578, 713597, 713707, 713796, 713825, 713913, 714118, 714191, 714250
*Elset, elset=_EXT_CABIN_S4, internal, instance=PART-1-1
 700033, 700269, 700586, 704965, 705844, 705932, 707230, 707436, 707469, 707949, 707990, 708073, 708313, 708423, 708447, 708517
 708618, 708917, 709157, 709158, 709492, 709757, 709817, 709896, 709937, 710037, 710215, 710294, 710358, 710393, 710466, 710596
 710637, 710692, 710751, 710778, 710785, 710838, 710928, 711014, 711149, 711160, 711165, 711224, 711347, 711443, 711474, 711959
 711976, 712024, 712092, 712223, 712232, 712252, 712360, 712500, 712517, 712575, 712654, 712712, 712795, 713062, 713063, 713120
 713162, 713169, 713173, 713338, 713394, 713401, 713452, 713531, 713573, 713595, 713679, 713835, 713963, 714002, 714013, 714032
 714086, 714091, 714141, 714156, 714158, 714324
*Elset, elset=_EXT_CABIN_S3, internal, instance=PART-1-1
 700211, 700255, 700731, 700899, 700923, 701029, 701050, 702992, 703225, 703256, 703354, 703846, 704602, 705649, 705908, 705921
 705992, 706062, 706084, 707102, 707115, 707236, 707279, 707303, 707321, 707332, 707333, 707340, 707343, 707356, 707404, 707435
 707449, 707496, 707501, 707505, 707546, 707549, 707605, 707650, 707664, 707667, 707671, 707673, 707704, 707781, 707792, 707946
 707958, 707996, 707998, 708005, 708011, 708014, 708102, 708116, 708124, 708177, 708209, 708212, 708278, 708318, 708323, 708381
 708410, 708441, 708453, 708461, 708474, 708509, 708511, 708531, 708532, 708543, 708574, 708659, 708676, 708735, 708761, 708777
 708824, 708879, 708948, 709009, 709018, 709026, 709087, 709109, 709146, 709227, 709257, 709276, 709296, 709361, 709387, 709404
 709423, 709504, 709655, 709708, 709748, 709876, 709902, 709907, 709913, 709923, 709934, 709968, 709996, 710005, 710006, 710042
 710049, 710068, 710138, 710185, 710189, 710190, 710224, 710228, 710246, 710260, 710284, 710285, 710311, 710313, 710314, 710317
 710323, 710324, 710338, 710364, 710366, 710369, 710370, 710404, 710422, 710423, 710427, 710478, 710493, 710495, 710504, 710505
 710506, 710518, 710522, 710548, 710573, 710627, 710630, 710654, 710704, 710712, 710714, 710726, 710746, 710750, 710764, 710773
 710794, 710802, 710815, 710830, 710878, 710891, 710897, 710898, 710906, 710907, 710936, 710943, 710962, 710968, 710978, 710984
 710997, 711007, 711024, 711039, 711049, 711071, 711089, 711104, 711109, 711117, 711123, 711153, 711155, 711167, 711169, 711179
 711203, 711209, 711266, 711273, 711276, 711278, 711284, 711285, 711286, 711288, 711310, 711322, 711336, 711351, 711354, 711364
 711371, 711385, 711425, 711531, 711538, 711557, 711603, 711609, 711660, 711676, 711677, 711696, 711704, 711714, 711718, 711721
 711797, 711804, 711825, 711826, 711838, 711839, 711873, 711889, 711894, 711897, 711921, 711941, 711942, 711947, 712000, 712008
 712052, 712060, 712097, 712098, 712134, 712141, 712147, 712184, 712207, 712235, 712266, 712272, 712288, 712289, 712293, 712302
 712306, 712309, 712322, 712329, 712342, 712353, 712367, 712368, 712375, 712403, 712405, 712439, 712484, 712489, 712523, 712571
 712600, 712603, 712607, 712616, 712624, 712634, 712663, 712665, 712694, 712704, 712715, 712716, 712717, 712745, 712759, 712778
 712783, 712800, 712814, 712845, 712851, 712858, 712861, 712889, 712890, 712901, 712905, 712946, 712995, 713002, 713026, 713043
 713080, 713082, 713109, 713114, 713131, 713173, 713191, 713222, 713226, 713233, 713244, 713255, 713290, 713292, 713323, 713329
** ... 5 like lines cut
*Elset, elset=_EXT_EG_S1, internal, instance=PART-1-1
 700469, 700550, 700676, 700688, 700703, 700931, 700943, 706479, 708332, 709413, 710027, 710266, 710293, 710576, 710790, 711074
 711207, 711213, 711690, 711853, 712239, 712641, 712718, 712976, 713160, 713232, 713579, 713744, 714059
*Elset, elset=_EXT_EG_S2, internal, instance=PART-1-1
 700251, 700313, 700398, 700784, 700931, 700943, 700954, 701057, 702295, 703805, 706008, 708287, 710547, 710733, 711571, 711689
 711841, 711909, 712735, 714260, 714298
*Elset, elset=_EXT_EG_S4, internal, instance=PART-1-1
 700012, 700032, 700108, 700260, 700437, 700511, 700654, 700701, 700883, 700910, 700971, 700994, 701017, 703871, 705564, 706313
 706718, 707130, 707417, 707442, 707871, 708041, 708184, 708411, 708465, 708679, 709111, 709391, 709520, 709863, 710021, 710039
 710165, 710280, 710381, 710472, 710474, 710482, 710694, 710713, 710843, 711046, 711098, 711166, 711262, 711292, 711381, 711446
 711626, 711867, 712054, 712148, 712244, 712399, 712446, 712468, 712472, 712506, 712553, 712631, 712675, 712836, 712978, 713168
 713237, 713269, 713314, 713479, 713576, 713619, 713620, 713656, 713769, 713928, 713933, 714049, 714184, 714368, 714370, 714382
 714410, 714417, 714423, 714427, 714428, 714431, 714435
*Elset, elset=_EXT_EG_S3, internal, instance=PART-1-1
 700012, 700047, 700108, 700110, 700148, 700156, 700239, 700254, 700263, 700268, 700310, 700411, 700450, 700518, 700540, 700554
 700602, 700615, 700628, 700680, 700701, 700723, 700726, 700730, 700778, 700805, 700813, 700838, 700844, 700913, 700929, 700939
 700940, 700958, 700981, 700988, 700990, 700994, 701001, 701019, 701065, 701068, 701136, 702558, 703019, 703067, 703071, 703169
 703177, 703224, 703609, 704052, 704267, 704685, 704727, 705374, 705402, 705626, 705767, 705917, 706042, 706124, 706193, 706472
 706648, 706707, 706748, 706766, 706923, 707098, 707110, 707132, 707134, 707216, 707218, 707227, 707338, 707370, 707394, 707492
 707494, 707526, 707639, 707747, 707827, 707987, 708006, 708111, 708143, 708275, 708340, 708352, 708369, 708467, 708565, 708658
 708712, 708731, 708745, 708808, 708826, 708869, 708903, 708965, 708980, 709031, 709071, 709118, 709172, 709278, 709581, 709705
 709829, 709859, 709901, 710012, 710122, 710267, 710307, 710309, 710406, 710477, 710509, 710525, 710545, 710551, 710568, 710591
 710616, 710753, 710787, 710821, 710824, 710826, 710841, 710848, 710851, 710901, 710902, 710944, 710946, 710954, 710959, 710969
 710972, 710985, 710986, 711042, 711043, 711052, 711103, 711156, 711162, 711181, 711249, 711279, 711297, 711308, 711337, 711389
 711440, 711445, 711504, 711522, 711543, 711587, 711588, 711589, 711610, 711632, 711666, 711678, 711679, 711705, 711744, 711745
 711752, 711756, 711760, 711761, 711803, 711822, 711898, 711928, 711982, 711999, 712029, 712057, 712114, 712171, 712225, 712226
 712228, 712245, 712247, 712249, 712259, 712276, 712297, 712327, 712335, 712415, 712466, 712479, 712481, 712525, 712526, 712549
 712573, 712585, 712628, 712658, 712754, 712824, 712825, 712829, 712839, 712859, 712865, 712896, 712911, 712913, 712929, 712949
 712977, 712996, 713072, 713140, 713200, 713228, 713304, 713307, 713309, 713347, 713429, 713478, 713487, 713495, 713497, 713498
 713567, 713589, 713699, 713700, 713743, 713757, 713758, 713760, 713766, 713816, 713833, 713967, 714041, 714042, 714048, 714055
 714058, 714059, 714170, 714180, 714227, 714244, 714277, 714289, 714296, 714297, 714329, 714380, 714405
*Elset, elset=_INSIDE_INAIR_S1_1, internal, instance=PART-1-1
 500283, 500288, 500292, 500654, 500669, 500823, 500946, 501806, 502462, 502817, 503217, 503362, 503386, 503996, 504019, 504191
 504574, 504592, 504993, 505061, 505210, 505399, 505414, 505839, 505897, 506057, 506135, 506170, 506189, 506422, 506443, 506667
 506684, 506895, 506900, 506903, 506915, 506934, 506940, 506946, 506949, 506960, 506964, 506970, 506981, 506996, 507001, 507028
 507036, 507037, 507042, 507043, 507052, 507067, 507076, 507094, 507128, 507185, 507203, 507204, 507225, 507248, 507276, 507315
 507322, 507327, 507364, 507374, 507402, 507472, 507499, 507507, 507525, 507545, 507571, 507574, 507596, 507611, 507628, 507633
 507634, 507660, 507661, 507720, 507732, 507738, 507747, 507749, 507757, 507773, 507813, 507849, 507856, 507948, 508132, 508142
 508146, 508273, 508309, 508348, 508399, 508408, 508409, 508459, 508516, 508550, 508647, 508678, 508724, 508783, 508801, 508836
 508838, 508863, 508925, 508972, 508979, 508983, 509022, 509035, 509075, 509162, 509165, 509195, 509199, 509235, 509239, 509266
 509277, 509282, 509295, 509345, 509356, 509367, 509399, 509424, 509468, 509504, 509528, 509594, 509630, 509648, 509655, 509665
 509696, 509697, 509744, 509757, 509777, 509785, 509855, 509872, 509880, 509914, 509917, 509989, 510023, 510042, 510049, 510065
 510069, 510090, 510106, 510159, 510233, 510241, 510269, 510319, 510338, 510342
*Elset, elset=_INSIDE_INAIR_S2_1, internal, instance=PART-1-1
 500002, 500029, 500074, 500221, 500234, 500277, 500278, 500282, 500562, 502297, 502400, 502444, 502466, 503417, 504987, 505173
 505250, 505697, 505727, 505733, 506164, 506173, 506298, 506718, 506868, 507453, 507482, 507515, 507801, 507877, 507946, 507950
 508002, 508145, 508447, 508514, 508533, 508541, 508569, 508570, 508597, 508598, 508655, 508700, 508746, 508821, 508840, 508858
 508974, 508988, 509095, 509264, 509271, 509272, 509286, 509297, 509416, 509429, 509435, 509460, 509469, 509475, 509480, 509511
 509530, 509574, 509642, 509653, 509664, 509728, 509888, 509933, 510066, 510068, 510073, 510083, 510084, 510096, 510121, 510122
 510132, 510188, 510207, 510273
*Elset, elset=_INSIDE_INAIR_S4_1, internal, instance=PART-1-1
 500008, 500010, 500012, 500035, 500048, 500061, 500066, 500092, 500093, 500096, 500103, 500112, 500125, 500130, 500152, 500158
 500184, 500215, 500217, 500271, 500279, 500286, 500326, 500406, 500423, 500443, 500480, 500495, 500517, 500526, 500528, 500712
 500779, 500790, 500796, 500842, 500850, 500925, 502169, 502264, 502526, 502551, 503004, 503011, 503172, 503174, 503186, 503197
 503316, 503344, 503365, 503477, 503558, 503752, 503845, 503915, 504096, 504164, 504472, 504575, 504704, 504790, 504833, 504845
 504934, 504944, 505115, 505122, 505127, 505149, 505212, 505217, 505234, 505257, 505279, 505306, 505377, 505390, 505401, 505445
 505465, 505485, 505588, 505642, 505655, 505685, 505748, 505755, 505764, 506022, 506042, 506067, 506073, 506082, 506132, 506160
 506176, 506224, 506251, 506327, 506331, 506430, 506459, 506497, 506510, 506522, 506570, 506576, 506619, 506620, 506627, 506634
 506650, 506716, 506748, 506846, 506867, 506878, 506930, 506939, 506994, 507007, 507019, 507035, 507038, 507047, 507113, 507115
 507126, 507136, 507163, 507183, 507220, 507221, 507251, 507280, 507307, 507316, 507333, 507398, 507400, 507412, 507419, 507436
 507464, 507468, 507478, 507484, 507487, 507488, 507489, 507505, 507557, 507564, 507565, 507589, 507608, 507658, 507667, 507744
 507766, 507791, 507844, 507850, 507852, 507883, 507894, 507919, 507942, 507990, 508012, 508039, 508059, 508062, 508072, 508079
 508149, 508190, 508269, 508270, 508320, 508338, 508343, 508366, 508404, 508432, 508468, 508472, 508596, 508609, 508646, 508667
 508678, 508711, 508717, 508729, 508811, 508815, 508816, 508835, 508839, 508841, 508843, 508851, 508861, 508862, 508873, 508905
 508927, 508972, 508973, 508983, 508994, 509010, 509013, 509105, 509114, 509117, 509134, 509145, 509152, 509170, 509174, 509189
 509237, 509251, 509261, 509265, 509268, 509270, 509283, 509284, 509307, 509311, 509326, 509332, 509349, 509380, 509393, 509439
 509445, 509448, 509454, 509521, 509535, 509555, 509561, 509573, 509592, 509613, 509615, 509649, 509654, 509659, 509665, 509682
 509701, 509702, 509736, 509746, 509762, 509774, 509779, 509781, 509801, 509808, 509812, 509827, 509841, 509845, 509855, 509859
 509864, 509868, 509870, 509871, 509878, 509883, 509884, 509922, 509991, 510004, 510015, 510024, 510055, 510063, 510074, 510084
 510104, 510111, 510120, 510135, 510156, 510162, 510185, 510201, 510222, 510224, 510246, 510272, 510292, 510296, 510315, 510319
 510352, 510359, 510367, 510371, 510381
*Elset, elset=_INSIDE_INAIR_S3_1, internal, instance=PART-1-1
 500017, 500028, 500034, 500047, 500050, 500068, 500094, 500095, 500111, 500119, 500124, 500129, 500153, 500159, 500165, 500168
 500170, 500209, 500216, 500219, 500235, 500237, 500242, 500258, 500272, 500274, 500284, 500290, 500296, 500299, 500304, 500335
 500404, 500434, 500435, 500438, 500439, 500464, 500466, 500471, 500477, 500494, 500513, 500569, 500606, 500621, 500645, 500698
 500724, 500753, 500771, 500787, 500857, 500860, 500952, 501314, 501328, 501349, 501357, 501372, 501410, 501583, 501651, 501695
 501797, 502035, 502041, 502077, 502119, 502199, 502273, 502324, 502338, 502342, 502410, 502449, 502463, 502468, 502478, 502517
 502595, 502636, 502720, 502763, 502779, 502806, 502826, 502840, 503063, 503069, 503099, 503109, 503160, 503163, 503173, 503184
 503195, 503198, 503206, 503227, 503236, 503280, 503366, 503378, 503421, 503425, 503426, 503427, 503434, 503457, 503463, 503481
 503495, 503510, 503515, 503521, 503532, 503538, 503549, 503554, 503571, 503574, 503581, 503584, 503589, 503627, 503631, 503639
 503644, 503648, 503652, 503660, 503666, 503671, 503681, 503682, 503686, 503692, 503705, 503731, 503735, 503737, 503739, 503761
 503798, 503837, 503856, 503870, 503871, 503874, 503904, 503920, 503928, 503931, 503936, 504032, 504045, 504049, 504072, 504079
 504132, 504134, 504156, 504210, 504222, 504238, 504255, 504260, 504265, 504328, 504344, 504377, 504388, 504397, 504400, 504401
 504450, 504465, 504468, 504470, 504479, 504512, 504518, 504532, 504533, 504541, 504543, 504561, 504585, 504586, 504593, 504597
 504599, 504608, 504611, 504620, 504621, 504622, 504626, 504631, 504633, 504634, 504644, 504645, 504652, 504658, 504660, 504661
 504668, 504671, 504679, 504685, 504690, 504691, 504697, 504707, 504708, 504713, 504734, 504738, 504744, 504747, 504752, 504753
 504757, 504758, 504763, 504767, 504770, 504786, 504787, 504788, 504795, 504806, 504809, 504814, 504828, 504829, 504838, 504840
 504850, 504851, 504869, 504870, 504874, 504878, 504880, 504886, 504888, 504890, 504891, 504896, 504897, 504906, 504909, 504930
 504932, 504947, 504954, 504967, 504968, 504969, 504981, 504982, 504983, 505006, 505007, 505011, 505016, 505024, 505056, 505063
 505078, 505080, 505089, 505091, 505102, 505104, 505113, 505137, 505142, 505144, 505151, 505168, 505171, 505186, 505194, 505221
 505237, 505261, 505271, 505272, 505275, 505308, 505323, 505328, 505329, 505341, 505345, 505368, 505371, 505383, 505396, 505397
 505398, 505402, 505403, 505411, 505413, 505418, 505421, 505424, 505434, 505436, 505450, 505469, 505475, 505490, 505494, 505499
** ... 69 like lines cut
*Surface, type=ELEMENT, name=INSIDE_INAIR
_INSIDE_INAIR_S1_1, S1
_INSIDE_INAIR_S2_1, S2
_INSIDE_INAIR_S4_1, S4
_INSIDE_INAIR_S3_1, S3
*Elset, elset=_OUTSIDE_INAIR_S1_1, internal, instance=PART-1-1
 502540, 505177, 505207, 506858, 506871, 506884, 506890, 506979, 507008, 507194, 507386, 507440, 507795, 507843, 507861, 508120
 508208, 508373, 508483, 508531, 508556, 508625, 508748, 508781, 508899, 508958, 509053, 509188, 509190, 509197, 509379, 509397
 509538, 509557, 509569, 509570, 509694, 509704, 509733, 509789, 509803, 510035, 510045, 510071, 510138, 510215, 510320
*Elset, elset=_OUTSIDE_INAIR_S2_1, internal, instance=PART-1-1
 500280, 500700, 500786, 502626, 504974, 506495, 507427, 507592, 507659, 507718, 508362, 508557, 508635, 508656, 508756, 508781
 508893, 509029, 509054, 509061, 509065, 509073, 509200, 509212, 509330, 509353, 509369, 509516, 509517, 509536, 509538, 509539
 509540, 509570, 509661, 509694, 509707, 509782, 509940, 509951, 509957, 509958, 509980, 509997, 510005, 510095, 510138, 510169
 510234, 510370, 510396
*Elset, elset=_OUTSIDE_INAIR_S4_1, internal, instance=PART-1-1
 500069, 500128, 500131, 500287, 500289, 500341, 500413, 500484, 500625, 500749, 500863, 500873, 500995, 501694, 502113, 502302
 502964, 504247, 504469, 505155, 505501, 505602, 505840, 505886, 506113, 506405, 506971, 507079, 507143, 507157, 507337, 507342
 507384, 507530, 507669, 507873, 507908, 508024, 508034, 508136, 508235, 508300, 508328, 508336, 508356, 508406, 508465, 508482
 508531, 508619, 508750, 508752, 508805, 508901, 508906, 509047, 509056, 509061, 509073, 509171, 509197, 509198, 509365, 509379
 509491, 509522, 509540, 509558, 509577, 509591, 509620, 509625, 509643, 509661, 509718, 509752, 509753, 509782, 509951, 509954
 509961, 509966, 509978, 509980, 509998, 510109, 510150, 510180, 510219, 510285, 510390
*Elset, elset=_OUTSIDE_INAIR_S3_1, internal, instance=PART-1-1
 500016, 500036, 500104, 500105, 500127, 500128, 500131, 500160, 500228, 500295, 500313, 500353, 500364, 500444, 500445, 500447
 500452, 500467, 500519, 500563, 500587, 500622, 500632, 500637, 500659, 500671, 500697, 500718, 500752, 500757, 500791, 500810
 500834, 500854, 500876, 501106, 501186, 501256, 501285, 501311, 501585, 501601, 501724, 501736, 502085, 502202, 502298, 502328
 502344, 502388, 502431, 502470, 502488, 502523, 502742, 503025, 503059, 503070, 503101, 503110, 503155, 503167, 503224, 503318
 503354, 503356, 503363, 503372, 503392, 503396, 503446, 503458, 503516, 503762, 503778, 503812, 503820, 503853, 503901, 503925
 504013, 504082, 504216, 504301, 504499, 504534, 504549, 504581, 504659, 504711, 504759, 504764, 504777, 504908, 504910, 504919
 504942, 504961, 504975, 505018, 505033, 505037, 505093, 505116, 505119, 505139, 505228, 505241, 505296, 505322, 505326, 505353
 505419, 505433, 505437, 505444, 505451, 505476, 505537, 505580, 505592, 505612, 505623, 505650, 505670, 505725, 505751, 505793
 505796, 505798, 505813, 505832, 505834, 505840, 505854, 505894, 505928, 505960, 506025, 506036, 506104, 506107, 506130, 506154
 506230, 506235, 506237, 506245, 506252, 506270, 506281, 506284, 506353, 506369, 506418, 506530, 506550, 506564, 506623, 506640
 506661, 506687, 506728, 506771, 506787, 506791, 506802, 506812, 506866, 506870, 506943, 507090, 507091, 507099, 507102, 507106
 507107, 507108, 507109, 507111, 507118, 507133, 507135, 507144, 507162, 507174, 507239, 507242, 507266, 507268, 507271, 507275
 507285, 507298, 507308, 507328, 507330, 507365, 507376, 507406, 507439, 507448, 507465, 507466, 507479, 507480, 507510, 507512
 507526, 507554, 507585, 507591, 507602, 507632, 507665, 507683, 507686, 507690, 507703, 507712, 507726, 507739, 507752, 507759
 507772, 507780, 507783, 507818, 507819, 507837, 507845, 507882, 507899, 507911, 507916, 507920, 507947, 507954, 507956, 507970
 507971, 507984, 507997, 508017, 508020, 508053, 508058, 508063, 508067, 508082, 508084, 508088, 508089, 508099, 508124, 508155
 508192, 508200, 508232, 508257, 508259, 508262, 508268, 508300, 508304, 508308, 508313, 508319, 508351, 508355, 508363, 508402
 508410, 508426, 508428, 508429, 508433, 508448, 508450, 508479, 508493, 508538, 508543, 508545, 508559, 508591, 508593, 508615
 508627, 508631, 508633, 508638, 508640, 508641, 508642, 508643, 508656, 508657, 508662, 508685, 508738, 508749, 508754, 508759
 508765, 508767, 508774, 508778, 508779, 508796, 508809, 508812, 508814, 508819, 508820, 508848, 508850, 508872, 508892, 508896
** ... 7 like lines cut
*Surface, type=ELEMENT, name=OUTSIDE_INAIR
_OUTSIDE_INAIR_S1_1, S1
_OUTSIDE_INAIR_S2_1, S2
_OUTSIDE_INAIR_S4_1, S4
_OUTSIDE_INAIR_S3_1, S3
*Elset, elset=_RAD_S1_1, internal, instance=PART-1-1
 707368, 707755, 708393, 708737, 709707, 709831, 709851, 709853, 709927, 709943, 709958, 709965, 709984, 709999, 710020, 710128
 710131, 710134, 710142, 710145, 710146, 710152, 710156, 710159, 710167, 710218, 710219, 710221, 710229, 710231, 710235, 710247
 710269, 710275, 710290, 710292, 710321, 710328, 710342, 710351, 710355, 710357, 710365, 710368, 710443, 710458, 710462, 710494
 710638, 710665, 710669, 711001, 711018, 711275, 711350, 711702, 711707, 711880, 712022, 712068, 712083, 712188, 712281, 712681
 712683, 712738, 712739, 712879, 713087, 713098, 713196, 713267, 713272, 713273, 713282, 713366, 713449, 713456, 713509, 713583
 713592, 713632, 713646, 713669, 713716, 713739, 713794, 713845, 713973, 713976, 714088, 714093, 714127, 714269, 714280, 714326
*Elset, elset=_RAD_S2_1, internal, instance=PART-1-1
 705247, 706618, 709849, 709966, 710018, 710023, 710291, 710690, 710730, 711274, 711517, 711638, 711669, 711737, 711755, 711847
 711920, 711954, 712122, 712303, 712324, 712325, 712338, 712358, 712502, 712591, 712751, 712805, 712894, 712991, 713009, 713053
 713177, 713198, 713274, 713362, 713680, 713684, 713851, 713869, 713891, 713952, 714087, 714246, 714251, 714325
*Elset, elset=_RAD_S4_1, internal, instance=PART-1-1
 700044, 700053, 700081, 700107, 700370, 700383, 700486, 700812, 700817, 700895, 701039, 705556, 705726, 705790, 705903, 706811
 707258, 707267, 707432, 707561, 707623, 707644, 707669, 707762, 707934, 707999, 708121, 708561, 709176, 709279, 709523, 709594
 709651, 709920, 710095, 710097, 710100, 710173, 710345, 710346, 710418, 710448, 710456, 710486, 710497, 710515, 710519, 710521
 710532, 710710, 710737, 710768, 710804, 710819, 710823, 710938, 710951, 711084, 711131, 711168, 711219, 711315, 711375, 711411
 711465, 711466, 711586, 711598, 711599, 711685, 711694, 711772, 711777, 711778, 711782, 711816, 711858, 711865, 711917, 712004
 712034, 712064, 712069, 712086, 712132, 712151, 712185, 712190, 712212, 712221, 712248, 712351, 712355, 712392, 712432, 712448
 712455, 712494, 712524, 712548, 712551, 712569, 712618, 712630, 712655, 712711, 712724, 712737, 712747, 712811, 712812, 712828
 712871, 712876, 712919, 712924, 712947, 712957, 712968, 712979, 712981, 713010, 713076, 713193, 713341, 713398, 713457, 713474
 713513, 713548, 713562, 713571, 713572, 713600, 713624, 713683, 713722, 713725, 713782, 713863, 713872, 713911, 713949, 714027
 714078, 714080, 714153, 714178, 714199, 714209, 714228, 714292
*Elset, elset=_RAD_S3_1, internal, instance=PART-1-1
 700252, 700587, 700608, 700698, 700792, 700864, 700967, 703639, 703959, 704284, 704334, 704928, 705254, 705328, 705511, 705585
 705586, 705722, 705829, 705852, 705930, 705934, 705977, 706342, 706352, 706601, 706616, 706710, 706908, 707065, 707093, 707097
 707149, 707177, 707212, 707215, 707272, 707299, 707326, 707336, 707352, 707363, 707371, 707391, 707406, 707421, 707424, 707445
 707450, 707455, 707457, 707499, 707533, 707563, 707567, 707575, 707606, 707621, 707646, 707668, 707690, 707702, 707716, 707780
 707815, 707840, 707908, 707932, 708043, 708061, 708081, 708100, 708136, 708165, 708218, 708247, 708258, 708296, 708371, 708444
 708481, 708541, 708576, 708577, 708603, 708644, 708651, 708729, 708754, 708773, 708790, 708809, 708828, 708851, 708889, 708908
 709011, 709015, 709028, 709030, 709055, 709092, 709098, 709100, 709104, 709108, 709119, 709168, 709221, 709254, 709378, 709417
 709422, 709478, 709483, 709488, 709541, 709598, 709618, 709674, 709693, 709696, 709723, 709733, 709744, 709749, 709766, 709781
 709787, 709812, 709840, 709841, 709852, 709860, 709864, 709865, 709914, 709924, 709928, 709929, 709930, 709950, 709957, 709974
 709990, 710000, 710041, 710051, 710055, 710058, 710059, 710070, 710071, 710077, 710082, 710083, 710098, 710101, 710125, 710154
 710158, 710172, 710195, 710196, 710240, 710243, 710251, 710256, 710283, 710288, 710297, 710302, 710303, 710304, 710320, 710322
 710326, 710335, 710337, 710349, 710353, 710374, 710384, 710400, 710402, 710409, 710410, 710419, 710420, 710421, 710436, 710446
 710450, 710457, 710461, 710480, 710530, 710543, 710559, 710566, 710581, 710602, 710603, 710607, 710621, 710624, 710648, 710661
 710689, 710698, 710700, 710702, 710703, 710709, 710718, 710728, 710735, 710760, 710784, 710788, 710793, 710809, 710814, 710822
 710866, 710880, 710939, 710963, 710994, 710996, 711019, 711021, 711025, 711036, 711041, 711048, 711070, 711075, 711081, 711088
 711100, 711105, 711107, 711112, 711113, 711122, 711126, 711152, 711154, 711159, 711174, 711175, 711180, 711183, 711191, 711198
 711202, 711206, 711214, 711218, 711220, 711235, 711248, 711250, 711254, 711261, 711296, 711300, 711305, 711348, 711355, 711356
 711359, 711367, 711370, 711382, 711383, 711384, 711395, 711415, 711417, 711424, 711428, 711434, 711435, 711458, 711483, 711488
 711495, 711524, 711525, 711537, 711546, 711549, 711552, 711554, 711555, 711559, 711560, 711564, 711581, 711592, 711605, 711606
 711623, 711625, 711639, 711644, 711656, 711675, 711681, 711703, 711710, 711728, 711731, 711741, 711750, 711771, 711775, 711780
** ... 17 like lines cut
*Surface, type=ELEMENT, name=INFINITE_EXT
_RAD_S1_1, S1
_RAD_S2_1, S2
_RAD_S4_1, S4
_RAD_S3_1, S3
*Elset, elset=_ROAD_S1_1, internal, instance=PART-1-1
 700424, 710556, 710882, 710909, 710911, 711085, 711328, 711345, 711623, 711645, 711669, 711787, 711848, 711975, 712073, 712122
 712172, 712435, 712453, 712533, 712550, 712746, 712751, 712830, 712991, 713000, 713047, 713684, 713759, 714162, 714178, 714221
 714251,
*Elset, elset=_ROAD_S2_1, internal, instance=PART-1-1
 704065, 708074, 708248, 709735, 710025, 710438, 711068, 711775, 711778, 711788, 711952, 712220, 712681, 712831, 712954, 713272
 713373, 713905, 714131, 714226, 714228, 714292
*Elset, elset=_ROAD_S4_1, internal, instance=PART-1-1
 700264, 700447, 700561, 700570, 701296, 703672, 703775, 704284, 708197, 709210, 709308, 709909, 710016, 710126, 710184, 710210
 710257, 710278, 710289, 710569, 710853, 711380, 711473, 711517, 711776, 711953, 712048, 712127, 712213, 712317, 712338, 712339
 712864, 712927, 713025, 713061, 713093, 713127, 713646, 713662, 713663, 714181, 714201, 714315, 714320
*Elset, elset=_ROAD_S3_1, internal, instance=PART-1-1
 700161, 700510, 700624, 700772, 700891, 700893, 701004, 702057, 702287, 702480, 703284, 703763, 704173, 704269, 704279, 704330
 705068, 705175, 705234, 705840, 707175, 707221, 707372, 707444, 707486, 707565, 707884, 707944, 708076, 708147, 708185, 708304
 708408, 708413, 708569, 708608, 708894, 708896, 708955, 709078, 709262, 709324, 709345, 709428, 709493, 709522, 709567, 709667
 709677, 709836, 709880, 709941, 709945, 709960, 709964, 709978, 709992, 710017, 710047, 710078, 710084, 710104, 710107, 710174
 710186, 710198, 710273, 710308, 710426, 710428, 710437, 710485, 710520, 710523, 710565, 710599, 710601, 710645, 710660, 710664
 710736, 710754, 710757, 710786, 710803, 710817, 710867, 710887, 710919, 710971, 710982, 710995, 711026, 711038, 711044, 711061
 711062, 711063, 711067, 711127, 711130, 711134, 711142, 711188, 711269, 711324, 711325, 711352, 711403, 711404, 711413, 711449
 711472, 711480, 711485, 711507, 711516, 711521, 711534, 711536, 711548, 711561, 711562, 711566, 711569, 711621, 711643, 711663
 711706, 711767, 711794, 711807, 711809, 711814, 711815, 711820, 711835, 711836, 711847, 711852, 711863, 711876, 711885, 711893
 711910, 711918, 711923, 711978, 712002, 712009, 712021, 712028, 712033, 712072, 712152, 712156, 712182, 712236, 712284, 712291
 712314, 712319, 712343, 712384, 712411, 712416, 712458, 712471, 712496, 712507, 712515, 712518, 712519, 712539, 712559, 712599
 712615, 712629, 712657, 712668, 712671, 712690, 712713, 712714, 712775, 712779, 712784, 712790, 712820, 712862, 712874, 712935
 712971, 712994, 713015, 713021, 713032, 713036, 713041, 713086, 713126, 713147, 713165, 713177, 713227, 713236, 713249, 713277
 713308, 713324, 713331, 713344, 713374, 713387, 713405, 713426, 713434, 713440, 713448, 713472, 713542, 713628, 713685, 713688
 713731, 713733, 713762, 713807, 713934, 713969, 713976, 713984, 713999, 714026, 714062, 714110, 714112, 714124, 714134, 714148
 714174, 714200, 714219, 714225, 714233, 714252, 714269, 714420
*Surface, type=ELEMENT, name=ROAD
_ROAD_S1_1, S1
_ROAD_S2_1, S2
_ROAD_S4_1, S4
_ROAD_S3_1, S3
*Elset, elset=_EXT_CABIN_S1_1, internal, instance=PART-1-1
 700034, 700514, 700919, 706297, 707183, 709467, 709827, 709846, 709847, 709858, 709867, 709871, 709883, 709935, 709938, 709944
 709986, 710127, 710137, 710175, 710254, 710282, 710331, 710377, 710464, 710476, 710510, 710516, 710517, 710527, 710533, 710662
 710883, 710893, 710896, 711053, 711444, 711519, 711577, 712096, 712150, 712333, 712356, 712438, 712440, 712532, 712644, 712802
 713013, 713019, 713137, 713263, 713563, 714364
*Elset, elset=_EXT_CABIN_S2_1, internal, instance=PART-1-1
 700051, 708088, 708294, 708823, 710397, 710795, 710842, 710895, 711223, 711294, 711583, 711604, 711671, 711789, 711896, 712311
 712486, 713019, 713045, 713108, 713138, 713578, 713597, 713707, 713796, 713825, 713913, 714118, 714191, 714250
*Elset, elset=_EXT_CABIN_S4_1, internal, instance=PART-1-1
 700033, 700269, 700586, 704965, 705844, 705932, 707230, 707436, 707469, 707949, 707990, 708073, 708313, 708423, 708447, 708517
 708618, 708917, 709157, 709158, 709492, 709757, 709817, 709896, 709937, 710037, 710215, 710294, 710358, 710393, 710466, 710596
 710637, 710692, 710751, 710778, 710785, 710838, 710928, 711014, 711149, 711160, 711165, 711224, 711347, 711443, 711474, 711959
 711976, 712024, 712092, 712223, 712232, 712252, 712360, 712500, 712517, 712575, 712654, 712712, 712795, 713062, 713063, 713120
 713162, 713169, 713173, 713338, 713394, 713401, 713452, 713531, 713573, 713595, 713679, 713835, 713963, 714002, 714013, 714032
 714086, 714091, 714141, 714156, 714158, 714324
*Elset, elset=_EXT_CABIN_S3_1, internal, instance=PART-1-1
 700211, 700255, 700731, 700899, 700923, 701029, 701050, 702992, 703225, 703256, 703354, 703846, 704602, 705649, 705908, 705921
 705992, 706062, 706084, 707102, 707115, 707236, 707279, 707303, 707321, 707332, 707333, 707340, 707343, 707356, 707404, 707435
 707449, 707496, 707501, 707505, 707546, 707549, 707605, 707650, 707664, 707667, 707671, 707673, 707704, 707781, 707792, 707946
 707958, 707996, 707998, 708005, 708011, 708014, 708102, 708116, 708124, 708177, 708209, 708212, 708278, 708318, 708323, 708381
 708410, 708441, 708453, 708461, 708474, 708509, 708511, 708531, 708532, 708543, 708574, 708659, 708676, 708735, 708761, 708777
 708824, 708879, 708948, 709009, 709018, 709026, 709087, 709109, 709146, 709227, 709257, 709276, 709296, 709361, 709387, 709404
 709423, 709504, 709655, 709708, 709748, 709876, 709902, 709907, 709913, 709923, 709934, 709968, 709996, 710005, 710006, 710042
 710049, 710068, 710138, 710185, 710189, 710190, 710224, 710228, 710246, 710260, 710284, 710285, 710311, 710313, 710314, 710317
 710323, 710324, 710338, 710364, 710366, 710369, 710370, 710404, 710422, 710423, 710427, 710478, 710493, 710495, 710504, 710505
 710506, 710518, 710522, 710548, 710573, 710627, 710630, 710654, 710704, 710712, 710714, 710726, 710746, 710750, 710764, 710773
 710794, 710802, 710815, 710830, 710878, 710891, 710897, 710898, 710906, 710907, 710936, 710943, 710962, 710968, 710978, 710984
 710997, 711007, 711024, 711039, 711049, 711071, 711089, 711104, 711109, 711117, 711123, 711153, 711155, 711167, 711169, 711179
 711203, 711209, 711266, 711273, 711276, 711278, 711284, 711285, 711286, 711288, 711310, 711322, 711336, 711351, 711354, 711364
 711371, 711385, 711425, 711531, 711538, 711557, 711603, 711609, 711660, 711676, 711677, 711696, 711704, 711714, 711718, 711721
 711797, 711804, 711825, 711826, 711838, 711839, 711873, 711889, 711894, 711897, 711921, 711941, 711942, 711947, 712000, 712008
 712052, 712060, 712097, 712098, 712134, 712141, 712147, 712184, 712207, 712235, 712266, 712272, 712288, 712289, 712293, 712302
 712306, 712309, 712322, 712329, 712342, 712353, 712367, 712368, 712375, 712403, 712405, 712439, 712484, 712489, 712523, 712571
 712600, 712603, 712607, 712616, 712624, 712634, 712663, 712665, 712694, 712704, 712715, 712716, 712717, 712745, 712759, 712778
 712783, 712800, 712814, 712845, 712851, 712858, 712861, 712889, 712890, 712901, 712905, 712946, 712995, 713002, 713026, 713043
 713080, 713082, 713109, 713114, 713131, 713173, 713191, 713222, 713226, 713233, 713244, 713255, 713290, 713292, 713323, 713329
** ... 5 like lines cut
*Surface, type=ELEMENT, name=EXT_CABIN
_EXT_CABIN_S1_1, S1
_EXT_CABIN_S2_1, S2
_EXT_CABIN_S4_1, S4
_EXT_CABIN_S3_1, S3
*Elset, elset=_EXT_EG_S1_1, internal, instance=PART-1-1
 700469, 700550, 700676, 700688, 700703, 700931, 700943, 706479, 708332, 709413, 710027, 710266, 710293, 710576, 710790, 711074
 711207, 711213, 711690, 711853, 712239, 712641, 712718, 712976, 713160, 713232, 713579, 713744, 714059
*Elset, elset=_EXT_EG_S2_1, internal, instance=PART-1-1
 700251, 700313, 700398, 700784, 700931, 700943, 700954, 701057, 702295, 703805, 706008, 708287, 710547, 710733, 711571, 711689
 711841, 711909, 712735, 714260, 714298
*Elset, elset=_EXT_EG_S4_1, internal, instance=PART-1-1
 700012, 700032, 700108, 700260, 700437, 700511, 700654, 700701, 700883, 700910, 700971, 700994, 701017, 703871, 705564, 706313
 706718, 707130, 707417, 707442, 707871, 708041, 708184, 708411, 708465, 708679, 709111, 709391, 709520, 709863, 710021, 710039
 710165, 710280, 710381, 710472, 710474, 710482, 710694, 710713, 710843, 711046, 711098, 711166, 711262, 711292, 711381, 711446
 711626, 711867, 712054, 712148, 712244, 712399, 712446, 712468, 712472, 712506, 712553, 712631, 712675, 712836, 712978, 713168
 713237, 713269, 713314, 713479, 713576, 713619, 713620, 713656, 713769, 713928, 713933, 714049, 714184, 714368, 714370, 714382
 714410, 714417, 714423, 714427, 714428, 714431, 714435
*Elset, elset=_EXT_EG_S3_1, internal, instance=PART-1-1
 700012, 700047, 700108, 700110, 700148, 700156, 700239, 700254, 700263, 700268, 700310, 700411, 700450, 700518, 700540, 700554
 700602, 700615, 700628, 700680, 700701, 700723, 700726, 700730, 700778, 700805, 700813, 700838, 700844, 700913, 700929, 700939
 700940, 700958, 700981, 700988, 700990, 700994, 701001, 701019, 701065, 701068, 701136, 702558, 703019, 703067, 703071, 703169
 703177, 703224, 703609, 704052, 704267, 704685, 704727, 705374, 705402, 705626, 705767, 705917, 706042, 706124, 706193, 706472
 706648, 706707, 706748, 706766, 706923, 707098, 707110, 707132, 707134, 707216, 707218, 707227, 707338, 707370, 707394, 707492
 707494, 707526, 707639, 707747, 707827, 707987, 708006, 708111, 708143, 708275, 708340, 708352, 708369, 708467, 708565, 708658
 708712, 708731, 708745, 708808, 708826, 708869, 708903, 708965, 708980, 709031, 709071, 709118, 709172, 709278, 709581, 709705
 709829, 709859, 709901, 710012, 710122, 710267, 710307, 710309, 710406, 710477, 710509, 710525, 710545, 710551, 710568, 710591
 710616, 710753, 710787, 710821, 710824, 710826, 710841, 710848, 710851, 710901, 710902, 710944, 710946, 710954, 710959, 710969
 710972, 710985, 710986, 711042, 711043, 711052, 711103, 711156, 711162, 711181, 711249, 711279, 711297, 711308, 711337, 711389
 711440, 711445, 711504, 711522, 711543, 711587, 711588, 711589, 711610, 711632, 711666, 711678, 711679, 711705, 711744, 711745
 711752, 711756, 711760, 711761, 711803, 711822, 711898, 711928, 711982, 711999, 712029, 712057, 712114, 712171, 712225, 712226
 712228, 712245, 712247, 712249, 712259, 712276, 712297, 712327, 712335, 712415, 712466, 712479, 712481, 712525, 712526, 712549
 712573, 712585, 712628, 712658, 712754, 712824, 712825, 712829, 712839, 712859, 712865, 712896, 712911, 712913, 712929, 712949
 712977, 712996, 713072, 713140, 713200, 713228, 713304, 713307, 713309, 713347, 713429, 713478, 713487, 713495, 713497, 713498
 713567, 713589, 713699, 713700, 713743, 713757, 713758, 713760, 713766, 713816, 713833, 713967, 714041, 714042, 714048, 714055
 714058, 714059, 714170, 714180, 714227, 714244, 714277, 714289, 714296, 714297, 714329, 714380, 714405
*Surface, type=ELEMENT, name=EXT_EG
_EXT_EG_S1_1, S1
_EXT_EG_S2_1, S2
_EXT_EG_S4_1, S4
_EXT_EG_S3_1, S3
**
*End Assembly
** 
** MATERIALS
** 
*Material, name=EXTAIR
*Acoustic Medium
 0.14,
*Density
 1.2e-12,
*Material, name=INTAIR
*Acoustic Medium
 0.14,
*Density
 1.2e-12,
** 
** INTERACTION PROPERTIES
** 
*Impedance Property, name=ROAD-IMPD
 6.2e-10, 6.4e-05,      5.
 6.2e-10, 6.4e-05,    500.
** ----------------------------------------------------------------
** 
** STEP: Step-1
** 
*Step, name=SSD_submodel, perturbation
*Steady State Dynamics, direct, frequency scale=LINEAR, friction damping=NO
40., 150., 15, 1.
** 
** FIELD OUTPUT: F-Output-1
** 
*Output, field
*Node Output
POR, U
** 
** HISTORY OUTPUT: H-Output-1
** 
*Output, history
*Node Output, nset=OUTPUT
POR
*End Step
