** NVH: Truck cab and frame assembly structural mesh for 
**      sequentially coupled acoustic-structural analysis 
** For import into Abaqus/CAE via the workshop script ws_nvh_STR-ACS_seq.py
**
*Heading
*Preprint, echo=NO, model=NO, history=NO, contact=NO
**----------------------------------------------------------
**
** 	Structural Mesh
**
*Node
   3211,   1916.25598,   682.081421,   1822.80298
   3212,   1889.67798,   684.743225,   1817.29846
   3213,   1864.34888,   683.989563,   1815.20605
   3214,   1839.48804,   677.246216,   1816.36499
   3215,     1821.578,   667.814026,   1801.05798
   3216,   1813.20923,   661.395264,   1774.08948
   3217,   1805.90308,    646.64325,   1751.15369
   3223,    1816.9823,   639.450623,   1789.65173
   3224,   1808.30396,   625.596191,   1763.76917
   3225,   1747.53857,   824.807373,   1244.97986
   3227,   1749.30518,   819.016785,   1275.01538
   3229,   1751.40527,   812.133057,   1307.53296
   3232,   1753.21716,   804.466309,   1339.68713
   3233,   1756.77661,   794.762695,   1373.39087
   3235,   1760.46484,   785.757996,   1408.31787
   3237,   1764.16821,   775.826843,   1441.90503
   3239,   1767.96936,   765.220825,   1475.64343
   3241,   1771.69922,   756.021545,   1507.98267
   3243,   1775.46716,   745.398193,   1538.01392
   3246,   1779.36938,   732.325195,    1569.4259
** ... 6587 like lines cut
*Element, type=C3D8
 587,50000000,50000001,50000004,50000006, 400036, 400037, 400041, 400040
 588,50000001,50000002,50000005,50000004, 400037, 400038, 400042, 400041
 589,50000002,50000003,50000007,50000005, 400038,50000036,50000037, 400042
 590,50000006,50000004,50000011,50000009, 400040, 400041, 400045, 400044
 591,50000004,50000005,50000008,50000011, 400041, 400042, 400046, 400045
 592,50000005,50000007,50000010,50000008, 400042,50000037,50000038, 400046
 593,50000009,50000011,50000013,50000012, 400044, 400045, 400049, 400048
 594,50000011,50000008,50000014,50000013, 400045, 400046, 400050, 400049
 595,50000008,50000010,50000015,50000014, 400046,50000038,50000039, 400050
 596,50000012,50000013,50000017,50000016, 400048, 400049, 400053, 400052
 597,50000013,50000014,50000018,50000017, 400049, 400050, 400054, 400053
 598,50000014,50000015,50000019,50000018, 400050,50000039,50000040, 400054
 599,50000016,50000017,50000021,50000020, 400052, 400053, 400057, 400056
 600,50000017,50000018,50000022,50000021, 400053, 400054, 400058, 400057
 601,50000018,50000019,50000023,50000022, 400054,50000040,50000041, 400058
 602,50000020,50000021,50000025,50000024, 400056, 400057, 400061, 400060
 603,50000021,50000022,50000026,50000025, 400057, 400058, 400062, 400061
 604,50000022,50000023,50000027,50000026, 400058,50000041,50000042, 400062
 605,50000024,50000025,50000029,50000028, 400060, 400061, 400065, 400064
 606,50000025,50000026,50000030,50000029, 400061, 400062, 400066, 400065
** ... 1082 like lines cut
*Element, type=S4
5221,   3211,   3212,  18740,  18411
5223,   3213,   3214,  18767,  18740
5225,   3215,   3216,   3223,  18767
5226,   3216,   3217,   3224,   3223
5264,   3298,   3299,   3309,   3310
5265,   3299,   3300,   3308,   3309
5266,   3300,   3301,   3307,   3308
5267,   3301,   3302,   3306,   3307
5268,   3302,   3303,   3305,   3306
5270,   3310,   3309,   3316,   3317
5271,   3309,   3308,   3315,   3316
5272,   3308,   3307,   3314,   3315
5273,   3307,   3306,   3313,   3314
5274,   3306,   3305,   3312,   3313
5276,   3317,   3316,   3323,   3324
5277,   3316,   3315,   3322,   3323
5278,   3315,   3314,   3321,   3322
5279,   3314,   3313,   3320,   3321
5280,   3313,   3312,   3319,   3320
5282,   3324,   3323,   3329,   3330
** ... 4554 like lines cut
*Element, type=S3R
6454, 5892, 5898, 5891
6492, 5906, 5939, 5907
6516, 5963, 5949, 5948
6548, 5998, 5965, 5964
6658, 6129, 6007, 6006
6697, 6024, 6033, 6025
6700, 5882, 5897, 6160
7415, 7445, 7435, 7436
7422, 7443, 7447, 7439
7620, 7683, 7685, 7684
7629, 7002, 7005, 7673
7630, 7673, 7005, 7671
7728, 7212, 7137, 7179
7730, 7042, 7772, 7771
7739, 7446, 7776, 7447
7745, 7370, 7353, 7333
7748, 7357, 7438, 7359
7775, 7788, 7786, 7783
7786, 7188, 7187, 7785
7788, 7437, 7386, 7385
** ... 223 like lines cut
*Element, type=C3D6
59553,60000162,9104597,60000008,60000161,9104629,60000009
59554,60000009,60000161,9104629,60000010,60000160,9104599
59555,60000160,9104599,60000010,60000159,60000007,60000006
59805,60000213,18200778,60000201,60000214,18200779,60000202
59806,60000214,18200779,60000202,60000215,18200781,60000203
59807,60000215,18200781,60000203,60000217,60000200,60000204
110260560,50000470,188236537,50000474,50000469,188236524,50000473
110260561,50000469,188236524,50000473,50000468,188236523,50000472
110260562,50000453,188236540,50000458,50000454,188236530,50000456
110260563,50000454,188236530,50000456,50000451,188236529,50000457
110260566,50000552,188236541,50000447,50000553,188236532,50000448
110260567,50000553,188236532,50000448,50000554,188236531,50000449
110260570,50000540,188236551,50000544,50000541,188236544,50000545
110260571,50000541,188236544,50000545,50000542,188236543,50000546
110260594,50000607,50000603,188236625,50000606,50000602,188236627
110260602,188236635,50000254,50000120,188236636,50000251,50000116
110260603,188236632,50000355,50000252,188236631,50000311,50000249
110260604,188236629,50000357,50000356,188236630,50000315,50000313
110260605,188236621,50000567,50000358,188236624,50000566,50000317
*Element, type=S3R
110260915,188237003,188236770,188236733
110260921,188237004,188237001,188236967
110260931,188237012,188236771,188236735
110260937,188237013,188237010,188236960
110261009,188237038,188237073,188237091
110261015,188236688,188236743,188237095
110261016,188236686,188236762,188237099
110261022,188237041,188237081,188237107
*Elset, elset=SEAT-BOTTOM, generate
  587,  1090,     1
*Elset, elset=SEAT-TOP
   1967,   1968,   1969,   1970,   1971,   1972,   1973,   1974,   1975,   1976,   1977,   1978,   1979,   1980,   1981,   1982
   1983,   1984,   1985,   1986,   1987,   1988,   1989,   1990,   1991,   1992,   1993,   1994,   1995,   1996,   1997,   1998
   1999,   2000,   2001,   2002,   2003,   2004,   2005,   2006,   2007,   2008,   2009,   2010,   2011,   2012,   2013,   2014
   2015,   2016,   2017,   2018,   2019,   2020,   2021,   2022,   2023,   2024,   2025,   2026,   2027,   2028,   2029,   2030
   2031,   2032,   2033,   2034,   2035,   2036,   2037,   2038,   2039,   2040,   2041,   2042,   2043,   2044,   2045,   2046
   2047,   2048,   2049,   2050,   2051,   2052,   2053,   2054,   2055,   2056,   2057,   2058,   2059,   2060,   2061,   2062
   2063,   2064,   2065,   2066,   2067,   2068,   2069,   2070,   2071,   2072,   2073,   2074,   2075,   2076,   2077,   2078
   2079,   2080,   2081,   2082,   2083,   2084,   2085,   2086,   2087,   2088,   2089,   2090,   2091,   2092,   2093,   2094
   2095,   2096,   2097,   2098,   2099,   2100,   2101,   2102,   2103,   2104,   2105,   2106,   2107,   2108,   2109,   2110
   2119,   2120,   2121,   2122,   2123,   2124,   2125,   2126,   2127,   2128,   2129,   2130,   2131,   2132,   2133,   2134
   2135,   2136,   2137,   2138,   2139,   2140,   2141,   2142,   2143,   2144,   2145,   2146,   2147,   2148,   2149,   2150
   2151,   2152,   2153,   2154,   2155,   2156,   2157,   2158,   2159,   2160,   2161,   2162,   2163,   2164,   2165,   2166
   2167,   2168,   2169,   2170,   2171,   2172,   2173,   2174,   2175,   2176,   2177,   2178,   2179,   2180,   2181,   2182
   2183,   2184,   2185,   2186,   2187,   2188,   2189,   2190,   2191,   2192,   2193,   2194,   2195,   2196,   2197,   2198
   2199,   2200,   2201,   2202,   2203,   2204,   2205,   2206,   2207,   2208,   2209,   2210,   2211,   2212,   2213,   2214
   2215,   2216,   2217,   2218,   2219,   2220,   2221,   2222,   2223,   2224,   2225,   2226,   2227,   2228,   2229,   2230
   2231,   2232,   2233,   2234,   2235,   2236,   2237,   2238,   2239,   2240,   2241,   2242,   2243,   2244,   2245,   2246
   2247,   2248,   2249,   2250,   2251,   2252,   2253,   2254,   2255,   2256,   2257,   2258,   2259,   2260,   2261,   2262
   2263,   2264,   2265,   2266,   2267,   2268,   2269,   2270,   2271,   2272,   2273,   2274,   2275,   2276,   2277,   2278
   2279,   2280,   2281,   2282,   2283,   2284,   2285,   2286,110260506,110260507,110260508,110260509,110260510,110260511,110260512,110260513
** ... 4 like lines cut
*Elset, elset=SEAT_SUPPORT
110260576,110260577,110260578,110260579,110260580,110260581,110260582,110260583,110260584,110260585,110260586,110260587,110260588,110260589,110260590,110260591
110260592,110260593,110260594,110260596,110260597,110260598,110260599,110260600,110260601,110260602,110260603,110260604,110260605
*Elset, elset=ENGINE-FRONT
 59491, 59492, 59493, 59494, 59497, 59508, 59509, 59510, 59511, 59512, 59513, 59514, 59515, 59516, 59517, 59521
 59522, 59523, 59524, 59527, 59538, 59539, 59540, 59541, 59542, 59543, 59544, 59545, 59546, 59547, 59769, 59770
 59771, 59772, 59773, 59774, 59778, 59779, 59780, 59781, 59782, 59783, 59790, 59791, 59792, 59793, 59794, 59795
 59802, 59803, 59804, 59805, 59806, 59807
*Elset, elset=ENGINE-GEARBOX
  56249,  56250,  56251,  56255,  56256,  56257,  56261,  56262,  56263,  56270,  56271,  56272,  56275,  56276,  56280,  56281
  56284,  56285,  56288,  56289,  56290,  56294,  56295,  56296,  56300,  56301,  56304,  56305,  56306,  56310,  56311,  56312
  56316,  56317,  56318,  56325,  56326,  56327,  56331,  56332,  56333,  56337,  56338,  56339,  56343,  56344,  56345,  56349
  56350,  56351,  56355,  56356,  56357,  56359,  56362,  56363,  56366,  56367,  56371,  56372,  56373,  56434,  56435,  56438
  56439,  56442,  56444,  56445,  56448,  56449,  56452,  56453,  56456,  56458,  56459,  56462,  56463,  56464,  56465,  56466
  56467,  56468,  56476,  56477,  56478,  56479,  56480,  56481,  56482,  56490,  56491,  56494,  56495,  56498,  56500,  56501
  56504,  56505,  56506,  56507,  56508,  56514,  56515,  56516,  56517,  56518,  56524,  56525,  56526,  56530,  56531,  56532
  56533,  56534,  56540,  56541,  56542,  56543,  56544,  56545,  56546,  56547,  56548,  56549,  56550,  56551,  56552,  56553
  56554,  56555,  56556,  56557,  56558,  56559,  56560,  56561,  56562,  56563,  56564,  56565,  56566,  56567,  56568,  59553
  59554,  59555,110260070,110260081,110260082,110260083,110260084,110260085,110260086,110260087,110260088,110260089,110260090,110260091,110260092,110260095
110260096,110260097
*Elset, elset=CABIN-BACK
  6446,  6447,  6448,  6449,  6450,  6451,  6452,  6453,  6454,  6455,  6456,  6457,  6458,  6459,  6460,  6461
  6462,  6463,  6464,  6465,  6466,  6467,  6468,  6469,  6470,  6471,  6472,  6473,  6474,  6475,  6476,  6477
  6478,  6479,  6480,  6481,  6482,  6483,  6484,  6485,  6489,  6490,  6491,  6492,  6493,  6494,  6495,  6496
  6497,  6498,  6499,  6501,  6502,  6503,  6504,  6505,  6506,  6507,  6508,  6509,  6510,  6511,  6512,  6513
  6514,  6515,  6516,  6517,  6518,  6519,  6520,  6521,  6522,  6523,  6524,  6525,  6526,  6527,  6528,  6529
  6530,  6531,  6532,  6533,  6534,  6535,  6536,  6537,  6538,  6539,  6540,  6541,  6542,  6543,  6544,  6545
  6546,  6547,  6548,  6549,  6550,  6551,  6556,  6557,  6558,  6559,  6560,  6561,  6562,  6563,  6568,  6569
  6570,  6571,  6572,  6573,  6574,  6576,  6577,  6579,  6580,  6582,  6585,  6586,  6587,  6588,  6589,  6590
  6591,  6592,  6594,  6595,  6596,  6597,  6598,  6599,  6600,  6601,  6602,  6603,  6604,  6605,  6606,  6607
  6608,  6609,  6610,  6611,  6612,  6613,  6614,  6615,  6616,  6617,  6618,  6619,  6620,  6621,  6622,  6623
  6624,  6625,  6626,  6627,  6628,  6629,  6630,  6631,  6632,  6633,  6634,  6635,  6636,  6637,  6638,  6639
  6640,  6641,  6643,  6646,  6647,  6648,  6649,  6651,  6652,  6653,  6654,  6655,  6656,  6657,  6658,  6664
  6665,  6666,  6667,  6668,  6669,  6670,  6671,  6673,  6674,  6675,  6676,  6677,  6678,  6679,  6680,  6682
  6683,  6684,  6685,  6686,  6687,  6688,  6689,  6697,  6699,  6700,  6701,  6702,  6703,  6704,  6705,  6706
  6723,  6724,  6725,  6726,  6727,  6728,  6729,  6730,  6736,  6744,  6747,  6750,  6753, 55326, 55327, 55328
 55329, 55330, 55331, 55332, 55333, 55334, 55335, 55336, 55337, 55537, 55538, 55539, 55540, 55541, 55542, 55543
 55544, 55545, 55546, 55547, 55548, 55549, 55550, 55551, 55552, 55553, 55554, 55555, 55556, 55557, 55558, 55559
 55560, 55561, 55562, 55563, 55564, 55565, 55566, 55567, 55568, 55569, 55570, 55571, 55572, 55573, 55574
*Elset, elset=CABIN-BACK-PILLAR-OUTER-LEFT
  5221,  5223,  5225,  5226,  5264,  5265,  5266,  5267,  5268,  5270,  5271,  5272,  5273,  5274,  5276,  5277
  5278,  5279,  5280,  5282,  5283,  5284,  5285,  5286,  5288,  5289,  5290,  5291,  5292,  5294,  5295,  5296
  5297,  5298,  5300,  5301,  5302,  5303,  5304,  5305,  5306,  5307,  5308,  5309,  5310,  5311,  5312,  5313
  5314,  5315,  5316,  5317,  5318,  5319,  5320,  5321,  5322,  5323,  5324,  5325,  5326,  5327,  5328,  5329
  5330,  5331,  5332,  5333,  5334,  5335,  5336,  5337,  5338,  5339,  5340,  5341,  5342,  5343,  5344,  5345
  5346,  5347,  5348,  5349,  5350,  5351,  5352,  5353,  5354,  5355,  5356,  5357,  5358,  5359,  5360,  5361
  5362,  5363,  5364,  5365,  5366,  5367,  5368,  5369,  5370,  5371,  5372,  5373,  5374,  5375,  5376,  5377
  5378,  5379,  5380,  5381,  5382,  5383,  5415,  5416,  5417,  5418,  5419,  5420,  5421,  5422,  5423,  5424
  5425,  5426,  5427,  5428,  5429,  5430,  5431,  5432,  5433,  5434,  5435,  5436,  5437,  5438,  5439,  5440
  5441,  5442,  5443,  5444,  5445,  5446,  5447,  5448,  5449,  5450,  5451,  5452,  5453,  5454,  5455,  5456
  5457,  5458,  5459,  5460,  5461,  5462,  5463,  5464,  5465,  5466,  5467,  5468,  5469,  5470,  5471,  5472
  5473,  5474,  5475,  5476,  5477,  5478,  5479,  5480,  5481,  5482,  5483,  5484,  5485,  5486,  5487,  5488
  5489,  5490,  5491,  5492,  5493,  5494,  5495,  5496,  5497,  5498,  5499,  5500,  5501,  5502,  5503,  5504
  5505,  5506,  5507,  5508,  5509,  5510,  5511,  5512,  5513,  5514,  5515,  5516, 55301, 55302
*Elset, elset=CABIN-BOTTOM-CENTER
  7080,  7081,  7082,  7083,  7084,  7085,  7086,  7087,  7088,  7089,  7090,  7091,  7092,  7093,  7094,  7095
  7096,  7097,  7098,  7099,  7100,  7101,  7102,  7103,  7104,  7105,  7106,  7107,  7108,  7109,  7110,  7111
  7112,  7113,  7114,  7115,  7116,  7117,  7118,  7119,  7120,  7121,  7122,  7123,  7124,  7125,  7126,  7127
  7128,  7129,  7130,  7131,  7132,  7133,  7134,  7135,  7136,  7137,  7138,  7139,  7140,  7141,  7142,  7143
  7144,  7145,  7146,  7147,  7148,  7149,  7150,  7151,  7152,  7153,  7154,  7155,  7156,  7157,  7158,  7159
  7160,  7163,  7164,  7165,  7166,  7167,  7168,  7169,  7170,  7171,  7172,  7173,  7174,  7175,  7176,  7177
  7178,  7179,  7180,  7181,  7182,  7185,  7186,  7187,  7188,  7189,  7190,  7191,  7192,  7193,  7194,  7195
  7196,  7197,  7198,  7199,  7200,  7201,  7202,  7203,  7204,  7205,  7206,  7207,  7208,  7209,  7210,  7211
  7212,  7213,  7214,  7215,  7216,  7217,  7218,  7219,  7226,  7227,  7269,  7270,  7271,  7272,  7273,  7274
  7275,  7276,  7277,  7278,  7279,  7280,  7281,  7282,  7283,  7284,  7285,  7286,  7309,  7310,  7313,  7330
  7331,  7334,  7335,  7338,  7339,  7342,  7343,  7346,  7347,  7348,  7349,  7350,  7351,  7352,  7353,  7354
  7355,  7356,  7357,  7359,  7364,  7368,  7369,  7370,  7373,  7378,  7382,  7383,  7384,  7385,  7394,  7399
  7404,  7405,  7407,  7408,  7409,  7410,  7411,  7412,  7413,  7414,  7415,  7416,  7417,  7418,  7419,  7420
  7421,  7422,  7423,  7424,  7425,  7426,  7427,  7428,  7429,  7430,  7431,  7432,  7433,  7434,  7435,  7436
  7437,  7438,  7600,  7601,  7602,  7603,  7605,  7607,  7608,  7610,  7611,  7612,  7613,  7614,  7615,  7616
  7617,  7618,  7619,  7620,  7621,  7622,  7623,  7624,  7625,  7626,  7627,  7628,  7629,  7630,  7631,  7632
  7633,  7634,  7635,  7636,  7637,  7638,  7639,  7640,  7641,  7642,  7643,  7662,  7663,  7664,  7665,  7666
  7667,  7668,  7669,  7670,  7671,  7672,  7673,  7674,  7675,  7726,  7727,  7728,  7729,  7730,  7731,  7732
  7733,  7734,  7735,  7736,  7737,  7738,  7739,  7740,  7741,  7742,  7743,  7744,  7745,  7746,  7747,  7748
  7768,  7769,  7770,  7771,  7772,  7773,  7774,  7775,  7776,  7777,  7778,  7779,  7780,  7781,  7782,  7786
  7787,  7788,  7799,  7915,  7916,  7919,  7920,  7921,  7922,  7923,  7925,  7926,  7927,  7928,  7931, 55278
 55279, 55290, 55291, 55292, 55293, 55294, 55576, 55577, 55578, 55579, 55580, 55581, 62882, 62883
*Elset, elset=CABIN-BOTTOM-LEFT
  7933,  7936,  7937,  7938,  7940,  7941,  7942,  7943,  7944,  7945,  7946,  7947,  7948,  7950,  7951,  7952
  7953,  7954,  7955,  7956,  7957,  7958,  7959,  7960,  7961,  7962,  7963,  7964,  7965,  7966,  7967,  7968
  7969,  7970,  7971,  7972,  7973,  7974,  7975,  7976,  7977,  7978,  7979,  7980,  7981,  7982,  7984,  7985
  7986,  7987,  7988,  7989,  7990,  7991,  7992,  7993,  7994,  7995,  7996,  7997,  7998,  7999,  8000,  8001
  8002,  8003,  8004,  8005,  8006,  8007,  8008,  8009,  8010,  8011,  8012,  8013,  8014,  8015,  8016,  8017
  8018,  8019,  8020,  8021,  8022,  8023,  8024,  8025,  8026,  8027,  8028,  8029,  8030,  8031,  8032,  8034
  8035,  8036,  8037,  8038,  8039,  8040,  8041,  8042,  8043,  8044,  8045,  8046,  8047,  8048,  8049,  8050
  8051,  8052,  8053,  8054,  8055,  8056,  8057,  8058,  8059,  8060,  8061,  8062,  8063,  8064,  8066,  8067
  8068,  8069,  8070,  8071,  8072,  8073,  8074,  8075,  8076,  8077,  8078,  8079,  8080,  8081,  8082,  8083
  8084,  8085,  8090,  8091,  8092,  8093,  8094,  8095,  8096,  8097,  8098,  8099,  8100,  8101,  8102,  8103
  8104,  8105,  8106,  8107,  8108,  8109,  8110,  8111,  8112,  8113,  8114,  8115,  8116,  8117,  8118,  8119
  8120,  8121,  8122,  8123,  8158,  8159,  8160,  8161,  8166,  8167,  8168,  8169,  8171,  8172,  8175,  8176
  8177,  8178,  8179,  8180,  8181,  8182,  8183,  8184,  8190,  8191,  8192,  8193,  8194,  8195,  8196,  8197
  8198,  8199,  8200,  8201,  8202,  8203,  8204,  8209,  8210, 55466, 55467, 55468, 55469, 55470, 55471, 55472
 55473, 55474, 55475, 55476, 55477, 55478, 55479, 55480, 55481, 55482, 55483, 55484, 55485, 55486, 55487, 55488
 55489, 55490, 55491, 55492, 55493, 55494, 55495, 55496, 55497, 55498, 55499, 55500, 55501, 55502, 55503, 55504
 55505, 55506, 55507, 55508, 55509, 55510, 55511, 55512, 55513, 55514, 55515, 55516, 55517, 55518, 55519, 55520
 55521, 55522, 55524, 55525, 55526, 55527, 55529, 55530, 55531, 55532, 55533, 55534, 55535, 55536, 55575, 55582
 55583, 55584, 55585, 55586, 55587, 55588
*Elset, elset=CABIN-DASHBOARD-UP
 48100, 48101, 48103, 48104, 48107, 48108, 48109, 48110, 48112, 48113, 48117, 48118, 48119, 48120, 48121, 48122
 48123, 48124, 48125, 48126, 48127, 48128, 48129, 48130, 48131, 48138, 48139, 48140, 48141, 48142, 48143, 48144
 48164, 48165, 48166, 48167, 48168, 48169, 48170, 48171, 48172, 48173, 48174, 48175, 48176, 48177, 48178, 48179
 48180, 48181, 48182, 48183, 48184, 48185, 48186, 48187, 48188, 48191, 48192, 48193, 48195, 48196, 48197, 48198
 48199, 48200, 48201, 48202, 48203, 48208, 48209, 48210, 48211, 48212, 48213, 48214, 48215, 48221, 48222, 48223
 48224, 48225, 48226, 48227, 48228, 48229, 48230, 48231, 48232, 48233, 48234, 48235, 48236, 48237, 48238, 48242
 48243, 48244, 48245, 48246, 48247, 48255, 48256, 48257, 48258, 48259, 48260, 48261, 48262, 48263, 48264, 48265
 48266, 48267, 48268, 48269, 48270, 48271, 48272, 48273, 48274, 48275, 48276, 48277, 48278, 48279, 48280, 48281
 48282, 48283, 48284, 48285, 48286, 48287, 48288, 48289, 48290, 48291, 48292, 48293, 48294, 48295, 48296, 48297
 48298, 48299, 48300, 48301, 48302, 48303, 48304, 48305, 48306, 48308, 48309, 48310, 55589, 55590, 55591, 55592
 55593, 55594, 55595, 55596, 55597, 55598, 55599, 55600, 55717, 55718, 55719, 55720, 55721, 55722, 55723, 55724
 55725, 55726, 55727, 55728, 55729, 55730, 55731, 55732, 55733, 55734, 55735, 55736, 55737, 55738, 55739, 55740
 55741, 55742, 55743, 55744, 55745, 55746, 55747, 55748, 55749, 55750, 55751, 55752, 55753, 55754, 55755, 55756
 55757, 55758, 55759, 55760, 55761, 55762, 55763, 55764, 55765, 55766, 55767, 55768, 55769, 55770, 55771, 55772
 55773, 55774, 55775, 55776, 55777, 55778, 55779, 55780, 55781, 55782, 55783, 55784, 55785, 55786, 55787, 55788
 55789, 55790, 55791, 55792, 55793, 55794, 55795, 55796, 55797, 55798, 55799, 55800, 55801, 55802, 55803, 55804
 55805, 55806, 55807, 55808, 55809, 55810, 55811, 55812, 55813, 55814, 55815, 55816, 55817, 55818, 55819, 55820
 55821, 55822, 55823, 55824, 55825, 55826, 55827, 55828, 55829, 55830, 55831, 55832, 55833, 55834, 55835, 55836
 55837, 55838, 55839, 55840, 55841, 55842, 55843, 55844, 55845, 55846, 55847, 55848, 55849, 55850, 55851, 55852
 55853, 55854, 55855, 55857, 55858, 55859, 55860, 55861, 55862, 55863, 55864, 55865, 55866, 55867, 55868, 55869
** ... 16 like lines cut
*Elset, elset=CABIN-FIREWALL
 10526, 10527, 10533, 10534, 10552, 10553, 10559, 10560, 10566, 10567, 10573, 10574, 10580, 10581, 10587, 10588
 10592, 10593, 10597, 10598, 10602, 10603, 10604, 10605, 10611, 10612, 10632, 10633, 10634, 10635, 10636, 10637
 10638, 10639, 10640, 10641, 10642, 10643, 10644, 10645, 10646, 10647, 10648, 10649, 10650, 10651, 10652, 10653
 10654, 10655, 10656, 10657, 10658, 10659, 10660, 10661, 10662, 10663, 10664, 10665, 10666, 10667, 10668, 10669
 10670, 10671, 10672, 10673, 10674, 10675, 10676, 10677, 10678, 10679, 10680, 10681, 10682, 10683, 10684, 10685
 10686, 10687, 10688, 10689, 10690, 10691, 10692, 10693, 10694, 10695, 10696, 10697, 10698, 10699, 10700, 10701
 10702, 10703, 10704, 10705, 10706, 10707, 10708, 10709, 10710, 10711, 10712, 10713, 10714, 10715, 10716, 10717
 10718, 10719, 10720, 10722, 10723, 10725, 10727, 10728, 10732, 10733, 10737, 10738, 10740, 10741, 10742, 10743
 10744, 10745, 10746, 10747, 10748, 10749, 10750, 10751, 10752, 10753, 10754, 10755, 10756, 10757, 10758, 10759
 10760, 10761, 10762, 10763, 10764, 10765, 10766, 10767, 10768, 10769, 10770, 10771, 10772, 10773, 10774, 10775
 10776, 10777, 10778, 10779, 10780, 10781, 10782, 10783, 10784, 10785, 10786, 10787, 10788, 10789, 10790, 10791
 10792, 10793, 10794, 10795, 10796, 10797, 10798, 10799, 10800, 10801, 10802, 10803, 10804, 10805, 10806, 10807
 10808, 10809, 10814, 10815, 10816, 10817, 10818, 10819, 10820, 10821, 10822, 10823, 10824, 10825, 10826, 10827
 10828, 10829, 10831, 10832, 10833, 10834, 10835, 10836, 10837, 10838, 10839, 10840, 10841, 10842, 10843, 10844
 10845, 10846, 10847, 10848, 10849, 10850, 10851, 10852, 10853, 10854, 10855, 10856, 10857, 10858, 10859, 10860
 10861, 10862, 10863, 10864, 10865, 10866, 10867, 10868, 10869, 10870, 10871, 10872, 10873, 10874, 10875, 10876
 10877, 10878, 10879, 10880, 10881, 10882, 10883, 10884, 10885, 10886, 10887, 10888, 10889, 10890, 10891, 10892
 10893, 10894, 10895, 10896, 10900, 10901, 10902, 10903, 10905, 10907, 10910, 10911, 10912, 10913, 10914, 10915
 10916, 10917, 10918, 10919, 10920, 10921, 10922, 10923, 10924, 10925, 10926, 10927, 10928, 10929, 10930, 10931
 10932, 10933, 10934, 10935, 10936, 10937, 10938, 10939, 10940, 10941, 10942, 10943, 10944, 10945, 10946, 10947
** ... 10 like lines cut
*Elset, elset=CABIN-ROOF-OUTER
 12671, 12672, 12673, 12674, 12675, 12676, 12677, 12678, 12679, 12680, 12681, 12682, 12683, 12684, 12685, 12686
 12687, 12688, 12689, 12690, 12691, 12692, 12693, 12694, 12695, 12696, 12697, 12698, 12699, 12700, 12701, 12702
 12703, 12704, 12705, 12706, 12707, 12708, 12709, 12710, 12711, 12712, 12713, 12714, 12715, 12716, 12717, 12718
 12719, 12720, 12721, 12722, 12723, 12724, 12725, 12726, 12727, 12728, 12729, 12730, 12731, 12732, 12733, 12734
 12735, 12736, 12737, 12738, 12739, 12740, 12741, 12742, 12743, 12744, 12745, 12746, 12747, 12748, 12749, 12750
 12751, 12752, 12753, 12754, 12755, 12756, 12757, 12758, 12759, 12760, 12761, 12762, 12763, 12764, 12765, 12766
 12767, 12768, 12769, 12770, 12771, 12772, 12773, 12774, 12775, 12776, 12777, 12778, 12779, 12780, 12781, 12782
 12783, 12784, 12785, 12786, 12787, 12788, 12789, 12790, 12791, 12792, 12793, 12794, 12795, 12796, 12797, 12798
 12799, 12800, 12801, 12802, 12803, 12804, 12805, 12806, 12807, 12808, 12809, 12810, 12811, 12812, 12813, 12814
 12815, 12816, 12817, 12818, 12819, 12820, 12821, 12822, 12823, 12824, 12825, 12826, 12827, 12828, 12829, 12830
 12831, 12832, 12833, 12834, 12835, 12836, 12837, 12838, 12839, 12840, 12841, 12842, 12843, 12844, 12845, 12846
 12847, 12848, 12849, 12850, 12851, 12852, 12853, 12854, 12855, 12856, 12857, 12858, 12859, 12860, 12861, 12862
 12863, 12864, 12865, 12866, 12867, 12868, 12869, 12870, 12871, 12872, 12873, 12874, 12875, 12876, 12877, 12878
 12879, 12880, 12882, 12884, 12886, 12888, 12890, 12892, 12894, 12896, 12898, 12900, 12902, 12904, 12981, 12982
 12983, 12984, 12985, 12986, 12987, 12988, 12989, 12990, 12991, 12992, 12993, 12994, 12995, 12996, 12997, 12998
 12999, 13000, 13001, 13002, 13003, 13004, 13005, 13006, 13007, 13008, 13009, 13010, 13011, 13012, 13013, 13014
 13015, 13016, 13017, 13018, 13019, 13020, 13021, 13022, 13023, 13024, 13025, 13026, 13027, 13028, 13029, 13030
 13031, 13032, 13033, 13034, 13035, 13036, 54755, 54756, 55261, 55262, 55263, 55264, 55265, 55266, 55267, 55268
 55269, 55270, 55271, 55272, 55273, 55274
*Elset, elset=DASHBOARD-INTERIOR
 39680, 39681, 39685, 39707, 39708, 39722, 39726, 39730, 39754, 39758, 39762, 39766, 39770, 39774, 39778, 39817
 39821, 39825, 39838, 39839, 39840, 39841, 39894, 39895, 39896, 39897, 39923, 39924, 39925, 39926, 39927, 39928
 39929, 39930, 39931, 39932, 39933, 39934, 39935, 39936, 39937, 39938, 39942, 39943, 39944, 39945, 39946, 39947
 39948, 39949, 39950, 39951, 39952, 39953, 39954, 39955, 39956, 39957, 39958, 39959, 39960, 39961, 39962, 39963
 39964, 39965, 39966, 39967, 39968, 39969, 39970, 39971, 39972, 39973, 39974, 39975, 39976, 39977, 39978, 39979
 39980, 39981, 39982, 39983, 39984, 39985, 39986, 39987, 39988, 39989, 39990, 39991, 39992, 39993, 39994, 39995
 39996, 39997, 39998, 39999, 40000, 40001, 40002, 40003, 40004, 40005, 40006, 40007, 40008, 40009, 40010, 40011
 40012, 40013, 40018, 40019, 40020, 40021, 40022, 40023, 40024, 40025, 40026, 40027, 40028, 40029, 40030, 40031
 40032, 40033, 40034, 40035, 40036, 40037, 40038, 40039, 40040, 40041, 40042, 40043, 40044, 40045, 40046, 40047
 40048, 40049, 40050, 40051, 40052, 40053, 40054, 40055, 40056, 40057, 40058, 40059, 40063, 40064, 40065, 40066
 40067, 40068, 40069, 40070, 40071, 40072, 40073, 40074, 40075, 40076, 40077, 40078, 40079, 40080, 40081, 40082
 40083, 40084, 40085, 40086, 40087, 40088, 40089, 40090, 40091, 40092, 40093, 40094, 40095, 40096, 40097, 40098
 40099, 40100, 40101, 40102, 40103, 40104, 40105, 40106, 40107, 40108, 40109, 40116, 40117, 40118, 40119, 40120
 40121, 40122, 40123, 40124, 40125, 40126, 40127, 40128, 40129, 40130, 40131, 40132, 40133, 40134, 40135, 40136
 40137, 40138, 40139, 40140, 40141, 40142, 40143, 40144, 40145, 40146, 40147, 40148, 40149, 40150, 40151, 40152
 40153, 40154, 40155, 40156, 40157, 40158, 40159, 40160, 40161, 40162, 40163, 40164, 40165, 40166, 40167, 40168
 40169, 40170, 40171, 40172, 40173, 40174, 40175, 40176, 40177, 40178, 40179, 40180, 40181, 40182, 40183, 40184
 40185, 40186, 40187, 40188, 40189, 40190, 40191, 40196, 40197, 40198, 40199, 40200, 40201, 40202, 40203, 40204
 40205, 40206, 40207, 40208, 40209, 40210, 40211, 40212, 40213, 40214, 40215, 40216, 40217, 40218, 40219, 40220
 40221, 40222, 40223, 40224, 40225, 40226, 40227, 40228, 40229, 40230, 40231, 40232, 40233, 40234, 40235, 40236
** ... 47 like lines cut
*Elset, elset=DOOR-OUTER-LEFT
 17933, 17934, 17935, 17936, 17937, 17938, 17939, 17945, 17946, 17947, 17948, 17949, 17950, 17952, 17953, 17954
 17955, 17956, 17957, 17958, 17959, 17960, 17961, 17962, 17963, 17964, 17965, 17966, 17967, 17968, 17969, 17970
 17971, 17972, 17973, 17974, 17975, 17979, 17980, 17981, 17982, 17983, 17984, 17985, 17986, 17987, 17988, 17989
 17990, 17991, 17992, 17993, 17994, 17995, 17996, 17997, 17998, 17999, 18000, 18001, 18002, 18003, 18004, 18005
 18006, 18007, 18008, 18009, 18010, 18011, 18012, 18013, 18014, 18015, 18016, 18017, 18018, 18019, 18020, 18021
 18022, 18023, 18024, 18025, 18026, 18027, 18028, 18029, 18030, 18031, 18032, 18033, 18034, 18035, 18036, 18037
 18038, 18039, 18040, 18041, 18042, 18043, 18044, 18045, 18046, 18047, 18048, 18049, 18050, 18053, 18054, 18055
 18056, 18057, 18058, 18059, 18060, 18061, 18062, 18063, 18064, 18065, 18066, 18068, 18069, 18070, 18071, 18072
 18073, 18075, 18076, 18077, 18078, 18079, 18080, 18081, 18082, 18083, 18084, 18085, 18087, 18088, 18089, 18092
 18093, 18094, 18095, 18096, 18097, 18098, 18100, 18101, 18102, 18103, 18104, 18105, 18106, 18107, 18108, 18109
 18110, 18111, 18112, 18113, 18114, 18115, 18116, 18117, 18118, 18119, 18120, 18121, 18122, 18123, 18124, 18125
 18126, 18127, 18128, 18129, 18130, 18131, 18132, 18133, 18134, 18135, 18136, 18137, 18138, 18139, 18140, 18141
 18142, 18143, 18144, 18145, 18146, 18147, 18148, 18149, 18150, 18151, 18152, 18153, 18154, 18169, 18170, 18171
 18172, 18173, 18174, 18175, 18176, 18177, 18178, 18179, 18180, 18181, 18182, 18183, 18184, 18195, 18196, 18197
 18198, 18199, 18200, 18210, 18211, 18221, 18222, 18223, 18224, 18233, 18234, 18235, 18236, 18237, 18238, 18239
 18240, 18241, 18242, 18243, 18244, 18245, 18246, 18247, 18248, 18249, 18250, 18251, 18252, 18253, 18254, 18255
 18256, 18257, 18258, 18259, 18260, 18261, 18262, 18263, 18264, 18265, 18266, 18267, 18268, 18269, 18270, 18271
 18272, 18273, 18274, 18275, 18276, 18277, 18278, 18279, 18280, 18309, 18310, 18311, 18312, 18317, 18318, 18319
 18320, 18321, 18322, 18323, 18324, 18325, 18326, 18327, 18328, 18337, 18338, 18339, 18340, 18341, 18342, 18343
 18344, 18345, 18346, 18347, 18348, 18349, 18350, 18351, 18352, 18353, 18354, 18355, 18356, 18369, 18370, 18380
** ... 9 like lines cut
*Elset, elset=FRAME, generate
110260606, 110260877,       1
*Elset, elset=SUBFRAME
110260886,110260887,110260888,110260889,110260890,110260891,110260892,110260893,110260894,110260895,110260896,110260897,110260898,110260899,110260900,110260901
110260902,110260903,110260904,110260905,110260906,110260907,110260908,110260909,110260910,110260911,110260912,110260913,110260914,110260915,110260916,110260917
110260918,110260919,110260920,110260921,110260922,110260923,110260924,110260925,110260926,110260927,110260928,110260929,110260930,110260931,110260932,110260933
110260934,110260935,110260936,110260937,110260938,110260939,110260940,110260941,110260942,110260943,110260944,110260945,110260953,110260954,110260955,110260956
110260957,110260958,110260959,110260960,110260961,110260962,110260963,110260964,110260965,110260966,110260967,110260968,110260987,110260988,110260989,110260990
110260991,110260992,110260993,110260994,110261001,110261002,110261003,110261004,110261005,110261006,110261007,110261008,110261009,110261010,110261011,110261012
110261013,110261014,110261015,110261016,110261017,110261018,110261019,110261020,110261021,110261022,110261023,110261024,110261025,110261026,110261027,110261028
110261029,110261030,110261031,110261032,110261033,110261034,110261035,110261036,110261037,110261038,110261039,110261040,110261041,110261042
*Elset, elset=WINDOW-BACK
 53275, 53276, 53277, 53278, 53279, 53280, 53281, 53283, 53284, 53285, 53286, 53287, 53288, 53289, 53292, 53293
 53294, 53295, 53296, 53297, 53298, 53299, 53301, 53302, 53303, 53304, 53305, 53306, 53307, 53308, 53310, 53311
 53312, 53313, 53314, 53315, 53316, 53319, 53320, 53321, 53322, 53323, 53324, 53325, 53326, 53328, 53329, 53330
 53331, 53332, 53333, 53334, 53335, 53337, 53338, 53339, 53340, 53341, 53342, 53343, 53346, 53347, 53348, 53349
 53350, 53351, 53352, 53353, 53355, 53356, 53357, 53358, 53359, 53360, 53361, 53362, 55295, 55296, 55297, 55298
 55299, 55300, 55303, 55304, 55305, 55306, 55307, 55308, 55309, 55310, 55311, 55312, 55313, 55314, 55315, 55316
 55317, 55318, 55319, 55320, 55321, 55322, 55323, 55324, 55325
*Elset, elset=WINDOW-FRONT
 52607, 52608, 52609, 52610, 52611, 52612, 52613, 52614, 52615, 52616, 52617, 52618, 52619, 52620, 52621, 52637
 52638, 52639, 52640, 52641, 52642, 52643, 52644, 52645, 52646, 52647, 52648, 52649, 52650, 52651, 52652, 52668
 52669, 52670, 52671, 52672, 52673, 52674, 52675, 52676, 52677, 52678, 52679, 52680, 52681, 52682, 52683, 52699
 52700, 52701, 52702, 52703, 52704, 52705, 52706, 52707, 52708, 52709, 52710, 52711, 52712, 52713, 52714, 52730
 52731, 52732, 52733, 52734, 52735, 52736, 52737, 52738, 52739, 52740, 52741, 52742, 52743, 52744, 52745, 52761
 52762, 52763, 52764, 52765, 52766, 52767, 52768, 52769, 52770, 52771, 52772, 52773, 52774, 52775, 52776, 52792
 52793, 52794, 52795, 52796, 52797, 52798, 52799, 52800, 52801, 52802, 52803, 52804, 52805, 52806, 52807, 52823
 52824, 52825, 52826, 52827, 52828, 52829, 52830, 52831, 52832, 52833, 52834, 52835, 52836, 52837, 52838, 52854
 52855, 52856, 52857, 52858, 52859, 52860, 52861, 52862, 52863, 52864, 52865, 52866, 52867, 52868, 52869, 52885
 52886, 52887, 52888, 52889, 52890, 52891, 52892, 52893, 52894, 52895, 52896, 52897, 52898, 52899, 52900, 52916
 52917, 52918, 52919, 52920, 52921, 52922, 52923, 52924, 52925, 52926, 52927, 52928, 52929, 52930, 52931, 52947
 52948, 52949, 52950, 52951, 52952, 52953, 52954, 52955, 52956, 52957, 52958, 52959, 52960, 52961, 52962, 52978
 52979, 52980, 52981, 52982, 52983, 52984, 52985, 52986, 52987, 52988, 52989, 52990, 52991, 52992, 52993, 55645
 55646, 55647, 55648, 55649, 55650, 55651, 55652, 55653, 55654, 55655, 55656, 55657, 55658, 55659, 55660, 55661
 55662, 55663, 55664, 55665, 55666, 55667, 55668
*Elset, elset=WINDOW-SIDE-LEFT
 53062, 53063, 53064, 53065, 53066, 53067, 53068, 53069, 53070, 53071, 53072, 53073, 53074, 53077, 53078, 53079
 53080, 53081, 53082, 53083, 53084, 53085, 53086, 53087, 53088, 53089, 53092, 53093, 53094, 53095, 53096, 53097
 53098, 53099, 53100, 53101, 53102, 53103, 53104, 53107, 53108, 53109, 53110, 53111, 53112, 53113, 53114, 53115
 53116, 53117, 53118, 53119, 53122, 53123, 53124, 53125, 53126, 53127, 53128, 53129, 53130, 53131, 53132, 53134
 53135, 53136, 53137, 53138, 53139, 53140, 53141, 53142, 53143, 53144
*Nset, nset=PickedSet22
60000079,
*Nset, nset=PickedSet23
188237034,
*Nset, nset=PickedSet24
188236977,
*Nset, nset=PickedSet25
60000174,
** Section: Section-1-SEAT-BOTTOM
*Solid Section, elset=SEAT-BOTTOM, material=SEAT

** Section: Section-2-SEAT-TOP
*Solid Section, elset=SEAT-TOP, material=SEAT

** Section: Section-7-CABIN-BACK-PILLAR-OUTER-LEFT
*Shell Section, elset=CABIN-BACK-PILLAR-OUTER-LEFT, material=ELASTIC
1.1, 3
** Section: Section-6-CABIN-BACK
*Shell Section, elset=CABIN-BACK, material=ELASTIC
0.9, 3
** Section: Section-8-CABIN-BOTTOM-CENTER
*Shell Section, elset=CABIN-BOTTOM-CENTER, material=ELASTIC
0.9, 3
** Section: Section-9-CABIN-BOTTOM-LEFT
*Shell Section, elset=CABIN-BOTTOM-LEFT, material=ELASTIC
0.8, 3
** Section: Section-11-CABIN-FIREWALL
*Shell Section, elset=CABIN-FIREWALL, material=ELASTIC
1., 3
** Section: Section-12-CABIN-ROOF-OUTER
*Shell Section, elset=CABIN-ROOF-OUTER, material=ELASTIC
1., 3
** Section: Section-14-DOOR-OUTER-LEFT
*Shell Section, elset=DOOR-OUTER-LEFT, material=ELASTIC
1.9, 3
** Section: Section-13-DASHBOARD-INTERIOR
*Shell Section, elset=DASHBOARD-INTERIOR, material=ELASTIC
4., 3
** Section: Section-10-CABIN-DASHBOARD-UP
*Shell Section, elset=CABIN-DASHBOARD-UP, material=ELASTIC
1.1, 3
** Section: Section-18-WINDOW-FRONT
*Shell Section, elset=WINDOW-FRONT, material=ELASTIC
5., 3
** Section: Section-19-WINDOW-SIDE-LEFT
*Shell Section, elset=WINDOW-SIDE-LEFT, material=ELASTIC
4., 3
** Section: Section-17-WINDOW-BACK
*Shell Section, elset=WINDOW-BACK, material=ELASTIC
5., 3
** Section: Section-5-ENGINE-GEARBOX
*Solid Section, elset=ENGINE-GEARBOX, material=ELASTIC

** Section: Section-4-ENGINE-FRONT
*Solid Section, elset=ENGINE-FRONT, material=ELASTIC

** Section: Section-3-SEAT_SUPPORT
*Solid Section, elset=SEAT_SUPPORT, material=ELASTIC

** Section: Section-15-FRAME
*Shell Section, elset=FRAME, material=ELASTIC
3., 5
** Section: Section-16-SUBFRAME
*Shell Section, elset=SUBFRAME, material=ELASTIC
3., 5
*Element, type=SpringA, elset=EG_MTG-SPRING
110261043, 60000079, 188237034
110261044, 188236977, 60000174
*Spring, elset=EG_MTG-SPRING

12500., 0.
12500., 1000.
**  
**
** ASSEMBLY
**
**  
*MPC
BEAM, 8156, 188236828
BEAM, 8056, 188236830
*Nset, nset=FLOOR-RESP
 7090,
*Nset, nset=FRAME_FIX
188236671,188236705,188236706,188236707,188236741,188236742,188236776,188236777,188236811,188236812,188236846,188236847,188236881,188236882,188236916,188236917
*Nset, nset=ROOF-RESP
 18493,
*Nset, nset=YSYM_STR
   6180,   6181,   6182,   6183,   6184,   6185,   6186,   6187,   6188,   6189,   6194,   6196,   6198,   6200,   7117,   7123
   7149,   7275,   7276,   7277,   7278,   7279,   7280,   7281,   7282,   7308,   7335,   7340,   7345,   7350,   7424,   7429
   7732,   7855,  12844,  12851,  12858,  12874,  12881,  12888,  12893,  12900,  12909,  12915,  12921,  12927,  12933,  12941
  18014,  18029,  18044,  18059,  18074,  18090,  18121,  18136,  18152,  18165,  18181,  18196,  18212,  18223,  18238,  18268
  18360,  18361,  18376,  18405,  18801, 400068, 400069, 400070, 400263, 400272, 400281, 400563, 400564, 400565, 400566, 400695
 400696, 400698, 540607, 540608, 540609, 540616, 540639, 540640, 540658, 540659, 540665, 540688, 540692, 540696, 540701, 540706
 540711, 540716, 540751, 540755, 540759, 540764, 540778, 540779, 540780, 540781, 540833, 540834, 540835, 540836, 541806, 560017
 560059, 560066, 560115, 560128, 560135, 560142, 560225, 560232, 560239, 560246, 560253, 880027, 880248, 880254, 880257, 880260
 970285, 970321, 970346, 970384, 970414, 970450, 970480, 970510, 970545, 970574, 970608, 970639, 970668, 971123, 971124, 971126
 971127, 971129, 971130, 971131, 971132,9000013,9000017,9000018,9000019,9000020,9000182,9000183,9000296,9000297,9000298,9000299
9000300,9000301,9000302,9000303,9000304,9104586,9104592,9104597,9104608,9104641,9104648,9104655,9104662,9104669,9104682,9104689
9104696,9104703,9104710,9104724,9104731,9104738,9104745,9104765,9104772,9104779,9104786,9104793,9104929,9104934,9104939,9104954
9104959,9104964,9104983,9104984,9104985,9105008,9105009,9105010,9105029,9105034,9105040,9105066,9105068,9105070,9105082,9105089
9105099,9105113,9105114,9105121,9105127,9105137,9105213,9900998,9901001,9901002,9901010,18200777,18200778,18200797,50000032,50000033
50000034,50000035,50000044,50000077,50000078,50000079,50000080,50000182,50000191,50000200,50000209,50000218,50000227,50000383,50000384,50000385
50000386,50000415,50000416,50000417,50000418,50000479,50000480,50000481,50000482,50000491,50000524,50000525,50000526,50000527,50000897,50000918
50000932,50000939,50000946,50000953,50000960,50000973,50000980,50000987,50000988,50000995,50001002,50001009,50001016,50001029,50001036,50001043
50001050,50001057,50001058,50001064,50001071,50001078,50001085,50001092,50001099,60000003,60000008,60000014,60000018,60000027,60000033,60000041
60000045,60000056,60000059,60000062,60000065,60000069,60000073,60000079,60000083,60000089,60000098,60000099,60000108,60000109,60000112,60000118
60000122,60000124,60000128,60000135,60000143,60000148,60000152,60000156,60000162,60000163,60000165,60000175,60000176,60000177,60000178,60000183
60000185,60000201,60000212,60000213,60000221,60000223,60000224,60000233,188236521,188236522,188236536,188236951,188236952,188236956,188236957,188236958
188236959,188237000,188237009,188237030,188237031,188237032,188237033,188237034,188237035,188237072,188237080
*Elset, elset=CABIN-IN-SURF-FINAL
  5221,  5223,  5225,  5226,  5264,  5265,  5266,  5267,  5268,  5270,  5271,  5272,  5273,  5274,  5276,  5277
  5278,  5279,  5280,  5282,  5283,  5284,  5285,  5286,  5288,  5289,  5290,  5291,  5292,  5294,  5295,  5296
  5297,  5298,  5300,  5301,  5302,  5303,  5304,  5305,  5306,  5307,  5308,  5309,  5310,  5311,  5312,  5313
  5314,  5315,  5316,  5317,  5318,  5319,  5320,  5321,  5322,  5323,  5324,  5325,  5326,  5327,  5328,  5329
  5330,  5331,  5332,  5333,  5334,  5335,  5336,  5337,  5338,  5339,  5340,  5341,  5342,  5343,  5344,  5345
  5346,  5347,  5348,  5349,  5350,  5351,  5352,  5353,  5354,  5355,  5356,  5357,  5358,  5359,  5360,  5361
  5362,  5363,  5364,  5365,  5366,  5367,  5368,  5369,  5370,  5371,  5372,  5373,  5374,  5375,  5376,  5377
  5378,  5379,  5380,  5381,  5382,  5383,  5415,  5416,  5417,  5418,  5419,  5420,  5421,  5422,  5423,  5424
  5425,  5426,  5427,  5428,  5429,  5430,  5431,  5432,  5433,  5434,  5435,  5436,  5437,  5438,  5439,  5440
  5441,  5442,  5443,  5444,  5445,  5446,  5447,  5448,  5449,  5450,  5451,  5452,  5453,  5454,  5455,  5456
  5457,  5458,  5459,  5460,  5461,  5462,  5463,  5464,  5465,  5466,  5467,  5468,  5469,  5470,  5471,  5472
  5473,  5474,  5475,  5476,  5477,  5478,  5479,  5480,  5481,  5482,  5483,  5484,  5485,  5486,  5487,  5488
  5489,  5490,  5491,  5492,  5493,  5494,  5495,  5496,  5497,  5498,  5499,  5500,  5501,  5502,  5503,  5504
  5505,  5506,  5507,  5508,  5509,  5510,  5511,  5512,  5513,  5514,  5515,  5516,  6446,  6447,  6448,  6449
  6450,  6451,  6452,  6453,  6454,  6455,  6456,  6457,  6458,  6459,  6460,  6461,  6462,  6463,  6464,  6465
  6466,  6467,  6468,  6469,  6470,  6471,  6472,  6473,  6474,  6475,  6476,  6477,  6478,  6479,  6480,  6481
  6482,  6483,  6484,  6485,  6489,  6490,  6491,  6492,  6493,  6494,  6495,  6496,  6497,  6498,  6499,  6501
  6502,  6503,  6504,  6505,  6506,  6507,  6508,  6509,  6510,  6511,  6512,  6513,  6514,  6515,  6516,  6517
  6518,  6519,  6520,  6521,  6522,  6523,  6524,  6525,  6526,  6527,  6528,  6529,  6530,  6531,  6532,  6533
  6534,  6535,  6536,  6537,  6538,  6539,  6540,  6541,  6542,  6543,  6544,  6545,  6546,  6547,  6548,  6549
** ... 230 like lines cut
*Elset, elset=CABIN-OUT-SURF-FINAL
  5221,  5223,  5225,  5226,  5264,  5265,  5266,  5267,  5268,  5270,  5271,  5272,  5273,  5274,  5276,  5277
  5278,  5279,  5280,  5282,  5283,  5284,  5285,  5286,  5288,  5289,  5290,  5291,  5292,  5294,  5295,  5296
  5297,  5298,  5300,  5301,  5302,  5303,  5304,  5305,  5306,  5307,  5308,  5309,  5310,  5311,  5312,  5313
  5314,  5315,  5316,  5317,  5318,  5319,  5320,  5321,  5322,  5323,  5324,  5325,  5326,  5327,  5328,  5329
  5330,  5331,  5332,  5333,  5334,  5335,  5336,  5337,  5338,  5339,  5340,  5341,  5342,  5343,  5344,  5345
  5346,  5347,  5348,  5349,  5350,  5351,  5352,  5353,  5354,  5355,  5356,  5357,  5358,  5359,  5360,  5361
  5362,  5363,  5364,  5365,  5366,  5367,  5368,  5369,  5370,  5371,  5372,  5373,  5374,  5375,  5376,  5377
  5378,  5379,  5380,  5381,  5382,  5383,  5415,  5416,  5417,  5418,  5419,  5420,  5421,  5422,  5423,  5424
  5425,  5426,  5427,  5428,  5429,  5430,  5431,  5432,  5433,  5434,  5435,  5436,  5437,  5438,  5439,  5440
  5441,  5442,  5443,  5444,  5445,  5446,  5447,  5448,  5449,  5450,  5451,  5452,  5453,  5454,  5455,  5456
  5457,  5458,  5459,  5460,  5461,  5462,  5463,  5464,  5465,  5466,  5467,  5468,  5469,  5470,  5471,  5472
  5473,  5474,  5475,  5476,  5477,  5478,  5479,  5480,  5481,  5482,  5483,  5484,  5485,  5486,  5487,  5488
  5489,  5490,  5491,  5492,  5493,  5494,  5495,  5496,  5497,  5498,  5499,  5500,  5501,  5502,  5503,  5504
  5505,  5506,  5507,  5508,  5509,  5510,  5511,  5512,  5513,  5514,  5515,  5516,  6446,  6447,  6448,  6449
  6450,  6451,  6452,  6453,  6454,  6455,  6456,  6457,  6458,  6459,  6460,  6461,  6462,  6463,  6464,  6465
  6466,  6467,  6468,  6469,  6470,  6471,  6472,  6473,  6474,  6475,  6476,  6477,  6478,  6479,  6480,  6481
  6482,  6483,  6484,  6485,  6489,  6490,  6491,  6492,  6493,  6494,  6495,  6496,  6497,  6498,  6499,  6501
  6502,  6503,  6504,  6505,  6506,  6507,  6508,  6509,  6510,  6511,  6512,  6513,  6514,  6515,  6516,  6517
  6518,  6519,  6520,  6521,  6522,  6523,  6524,  6525,  6526,  6527,  6528,  6529,  6530,  6531,  6532,  6533
  6534,  6535,  6536,  6537,  6538,  6539,  6540,  6541,  6542,  6543,  6544,  6545,  6546,  6547,  6548,  6549
** ... 175 like lines cut
*Elset, elset=STR_LOAD
  56249,  56250,  56251,  56255,  56256,  56257,  56261,  56262,  56263,  56270,  56271,  56272,  56275,  56276,  56280,  56281
  56284,  56285,  56288,  56289,  56290,  56294,  56295,  56296,  56300,  56301,  56304,  56305,  56306,  56310,  56311,  56312
  56316,  56317,  56318,  56325,  56326,  56327,  56331,  56332,  56333,  56337,  56338,  56339,  56343,  56344,  56345,  56349
  56350,  56351,  56355,  56356,  56357,  56359,  56362,  56363,  56366,  56367,  56371,  56372,  56373,  56434,  56435,  56438
  56439,  56442,  56444,  56445,  56448,  56449,  56452,  56453,  56456,  56458,  56459,  56462,  56463,  56464,  56465,  56466
  56467,  56468,  56476,  56477,  56478,  56479,  56480,  56481,  56482,  56490,  56491,  56494,  56495,  56498,  56500,  56501
  56504,  56505,  56506,  56507,  56508,  56514,  56515,  56516,  56517,  56518,  56524,  56525,  56526,  56530,  56531,  56532
  56533,  56534,  56540,  56541,  56542,  56543,  56544,  56545,  56546,  56547,  56548,  56549,  56550,  56551,  56552,  56553
  56554,  56555,  56556,  56557,  56558,  56559,  56560,  56561,  56562,  56563,  56564,  56565,  56566,  56567,  56568,  59491
  59492,  59493,  59494,  59497,  59508,  59509,  59510,  59511,  59512,  59513,  59514,  59515,  59516,  59517,  59521,  59522
  59523,  59524,  59527,  59538,  59539,  59540,  59541,  59542,  59543,  59544,  59545,  59546,  59547,  59553,  59554,  59555
  59769,  59770,  59771,  59772,  59773,  59774,  59778,  59779,  59780,  59781,  59782,  59783,  59790,  59791,  59792,  59793
  59794,  59795,  59802,  59803,  59804,  59805,  59806,  59807,110260070,110260081,110260082,110260083,110260084,110260085,110260086,110260087
110260088,110260089,110260090,110260091,110260092,110260095,110260096,110260097
*Elset, elset=INSIDE_SNEG
  5221,  5223,  5225,  5226,  5264,  5265,  5266,  5267,  5268,  5270,  5271,  5272,  5273,  5274,  5276,  5277
  5278,  5279,  5280,  5282,  5283,  5284,  5285,  5286,  5288,  5289,  5290,  5291,  5292,  5294,  5295,  5296
  5297,  5298,  5300,  5301,  5302,  5303,  5304,  5305,  5306,  5307,  5308,  5309,  5310,  5311,  5312,  5313
  5314,  5315,  5316,  5317,  5318,  5319,  5320,  5321,  5322,  5323,  5324,  5325,  5326,  5327,  5328,  5329
  5330,  5331,  5332,  5333,  5334,  5335,  5336,  5337,  5338,  5339,  5340,  5341,  5342,  5343,  5344,  5345
  5346,  5347,  5348,  5349,  5350,  5351,  5352,  5353,  5354,  5355,  5356,  5357,  5358,  5359,  5360,  5361
  5362,  5363,  5364,  5365,  5366,  5367,  5368,  5369,  5370,  5371,  5372,  5373,  5374,  5375,  5376,  5377
  5378,  5379,  5380,  5381,  5382,  5383,  5415,  5416,  5417,  5418,  5419,  5420,  5421,  5422,  5423,  5424
  5425,  5426,  5427,  5428,  5429,  5430,  5431,  5432,  5433,  5434,  5435,  5436,  5437,  5438,  5439,  5440
  5441,  5442,  5443,  5444,  5445,  5446,  5447,  5448,  5449,  5450,  5451,  5452,  5453,  5454,  5455,  5456
  5457,  5458,  5459,  5460,  5461,  5462,  5463,  5464,  5465,  5466,  5467,  5468,  5469,  5470,  5471,  5472
  5473,  5474,  5475,  5476,  5477,  5478,  5479,  5480,  5481,  5482,  5483,  5484,  5485,  5486,  5487,  5488
  5489,  5490,  5491,  5492,  5493,  5494,  5495,  5496,  5497,  5498,  5499,  5500,  5501,  5502,  5503,  5504
  5505,  5506,  5507,  5508,  5509,  5510,  5511,  5512,  5513,  5514,  5515,  5516,  6446,  6447,  6448,  6449
  6450,  6451,  6452,  6453,  6454,  6455,  6456,  6457,  6458,  6459,  6460,  6461,  6462,  6463,  6464,  6465
  6466,  6467,  6468,  6469,  6470,  6471,  6472,  6473,  6474,  6475,  6476,  6477,  6478,  6479,  6480,  6481
  6482,  6483,  6484,  6485,  6489,  6490,  6491,  6492,  6493,  6494,  6495,  6496,  6497,  6498,  6499,  6501
  6502,  6503,  6504,  6505,  6506,  6507,  6508,  6509,  6510,  6511,  6512,  6513,  6514,  6515,  6516,  6517
  6518,  6519,  6520,  6521,  6522,  6523,  6524,  6525,  6526,  6527,  6528,  6529,  6530,  6531,  6532,  6533
  6534,  6535,  6536,  6537,  6538,  6539,  6540,  6541,  6542,  6543,  6544,  6545,  6546,  6547,  6548,  6549
** ... 230 like lines cut
*Surface, type=ELEMENT, name=CAB_INTERIOR_STR
INSIDE_SNEG, SNEG
*Elset, elset=INSIDE
  5221,  5223,  5225,  5226,  5264,  5265,  5266,  5267,  5268,  5270,  5271,  5272,  5273,  5274,  5276,  5277
  5278,  5279,  5280,  5282,  5283,  5284,  5285,  5286,  5288,  5289,  5290,  5291,  5292,  5294,  5295,  5296
  5297,  5298,  5300,  5301,  5302,  5303,  5304,  5305,  5306,  5307,  5308,  5309,  5310,  5311,  5312,  5313
  5314,  5315,  5316,  5317,  5318,  5319,  5320,  5321,  5322,  5323,  5324,  5325,  5326,  5327,  5328,  5329
  5330,  5331,  5332,  5333,  5334,  5335,  5336,  5337,  5338,  5339,  5340,  5341,  5342,  5343,  5344,  5345
  5346,  5347,  5348,  5349,  5350,  5351,  5352,  5353,  5354,  5355,  5356,  5357,  5358,  5359,  5360,  5361
  5362,  5363,  5364,  5365,  5366,  5367,  5368,  5369,  5370,  5371,  5372,  5373,  5374,  5375,  5376,  5377
  5378,  5379,  5380,  5381,  5382,  5383,  5415,  5416,  5417,  5418,  5419,  5420,  5421,  5422,  5423,  5424
  5425,  5426,  5427,  5428,  5429,  5430,  5431,  5432,  5433,  5434,  5435,  5436,  5437,  5438,  5439,  5440
  5441,  5442,  5443,  5444,  5445,  5446,  5447,  5448,  5449,  5450,  5451,  5452,  5453,  5454,  5455,  5456
  5457,  5458,  5459,  5460,  5461,  5462,  5463,  5464,  5465,  5466,  5467,  5468,  5469,  5470,  5471,  5472
  5473,  5474,  5475,  5476,  5477,  5478,  5479,  5480,  5481,  5482,  5483,  5484,  5485,  5486,  5487,  5488
  5489,  5490,  5491,  5492,  5493,  5494,  5495,  5496,  5497,  5498,  5499,  5500,  5501,  5502,  5503,  5504
  5505,  5506,  5507,  5508,  5509,  5510,  5511,  5512,  5513,  5514,  5515,  5516,  6446,  6447,  6448,  6449
  6450,  6451,  6452,  6453,  6454,  6455,  6456,  6457,  6458,  6459,  6460,  6461,  6462,  6463,  6464,  6465
  6466,  6467,  6468,  6469,  6470,  6471,  6472,  6473,  6474,  6475,  6476,  6477,  6478,  6479,  6480,  6481
  6482,  6483,  6484,  6485,  6489,  6490,  6491,  6492,  6493,  6494,  6495,  6496,  6497,  6498,  6499,  6501
  6502,  6503,  6504,  6505,  6506,  6507,  6508,  6509,  6510,  6511,  6512,  6513,  6514,  6515,  6516,  6517
  6518,  6519,  6520,  6521,  6522,  6523,  6524,  6525,  6526,  6527,  6528,  6529,  6530,  6531,  6532,  6533
  6534,  6535,  6536,  6537,  6538,  6539,  6540,  6541,  6542,  6543,  6544,  6545,  6546,  6547,  6548,  6549
** ... 230 like lines cut
*Elset, elset=OUTSIDE_SPOS
  5221,  5223,  5225,  5226,  5264,  5265,  5266,  5267,  5268,  5270,  5271,  5272,  5273,  5274,  5276,  5277
  5278,  5279,  5280,  5282,  5283,  5284,  5285,  5286,  5288,  5289,  5290,  5291,  5292,  5294,  5295,  5296
  5297,  5298,  5300,  5301,  5302,  5303,  5304,  5305,  5306,  5307,  5308,  5309,  5310,  5311,  5312,  5313
  5314,  5315,  5316,  5317,  5318,  5319,  5320,  5321,  5322,  5323,  5324,  5325,  5326,  5327,  5328,  5329
  5330,  5331,  5332,  5333,  5334,  5335,  5336,  5337,  5338,  5339,  5340,  5341,  5342,  5343,  5344,  5345
  5346,  5347,  5348,  5349,  5350,  5351,  5352,  5353,  5354,  5355,  5356,  5357,  5358,  5359,  5360,  5361
  5362,  5363,  5364,  5365,  5366,  5367,  5368,  5369,  5370,  5371,  5372,  5373,  5374,  5375,  5376,  5377
  5378,  5379,  5380,  5381,  5382,  5383,  5415,  5416,  5417,  5418,  5419,  5420,  5421,  5422,  5423,  5424
  5425,  5426,  5427,  5428,  5429,  5430,  5431,  5432,  5433,  5434,  5435,  5436,  5437,  5438,  5439,  5440
  5441,  5442,  5443,  5444,  5445,  5446,  5447,  5448,  5449,  5450,  5451,  5452,  5453,  5454,  5455,  5456
  5457,  5458,  5459,  5460,  5461,  5462,  5463,  5464,  5465,  5466,  5467,  5468,  5469,  5470,  5471,  5472
  5473,  5474,  5475,  5476,  5477,  5478,  5479,  5480,  5481,  5482,  5483,  5484,  5485,  5486,  5487,  5488
  5489,  5490,  5491,  5492,  5493,  5494,  5495,  5496,  5497,  5498,  5499,  5500,  5501,  5502,  5503,  5504
  5505,  5506,  5507,  5508,  5509,  5510,  5511,  5512,  5513,  5514,  5515,  5516,  6446,  6447,  6448,  6449
  6450,  6451,  6452,  6453,  6454,  6455,  6456,  6457,  6458,  6459,  6460,  6461,  6462,  6463,  6464,  6465
  6466,  6467,  6468,  6469,  6470,  6471,  6472,  6473,  6474,  6475,  6476,  6477,  6478,  6479,  6480,  6481
  6482,  6483,  6484,  6485,  6489,  6490,  6491,  6492,  6493,  6494,  6495,  6496,  6497,  6498,  6499,  6501
  6502,  6503,  6504,  6505,  6506,  6507,  6508,  6509,  6510,  6511,  6512,  6513,  6514,  6515,  6516,  6517
  6518,  6519,  6520,  6521,  6522,  6523,  6524,  6525,  6526,  6527,  6528,  6529,  6530,  6531,  6532,  6533
  6534,  6535,  6536,  6537,  6538,  6539,  6540,  6541,  6542,  6543,  6544,  6545,  6546,  6547,  6548,  6549
** ... 175 like lines cut
*Surface, type=ELEMENT, name=CAB_EXTERIOR_STR
OUTSIDE_SPOS, SPOS
*Elset, elset=OUTSIDE
  5221,  5223,  5225,  5226,  5264,  5265,  5266,  5267,  5268,  5270,  5271,  5272,  5273,  5274,  5276,  5277
  5278,  5279,  5280,  5282,  5283,  5284,  5285,  5286,  5288,  5289,  5290,  5291,  5292,  5294,  5295,  5296
  5297,  5298,  5300,  5301,  5302,  5303,  5304,  5305,  5306,  5307,  5308,  5309,  5310,  5311,  5312,  5313
  5314,  5315,  5316,  5317,  5318,  5319,  5320,  5321,  5322,  5323,  5324,  5325,  5326,  5327,  5328,  5329
  5330,  5331,  5332,  5333,  5334,  5335,  5336,  5337,  5338,  5339,  5340,  5341,  5342,  5343,  5344,  5345
  5346,  5347,  5348,  5349,  5350,  5351,  5352,  5353,  5354,  5355,  5356,  5357,  5358,  5359,  5360,  5361
  5362,  5363,  5364,  5365,  5366,  5367,  5368,  5369,  5370,  5371,  5372,  5373,  5374,  5375,  5376,  5377
  5378,  5379,  5380,  5381,  5382,  5383,  5415,  5416,  5417,  5418,  5419,  5420,  5421,  5422,  5423,  5424
  5425,  5426,  5427,  5428,  5429,  5430,  5431,  5432,  5433,  5434,  5435,  5436,  5437,  5438,  5439,  5440
  5441,  5442,  5443,  5444,  5445,  5446,  5447,  5448,  5449,  5450,  5451,  5452,  5453,  5454,  5455,  5456
  5457,  5458,  5459,  5460,  5461,  5462,  5463,  5464,  5465,  5466,  5467,  5468,  5469,  5470,  5471,  5472
  5473,  5474,  5475,  5476,  5477,  5478,  5479,  5480,  5481,  5482,  5483,  5484,  5485,  5486,  5487,  5488
  5489,  5490,  5491,  5492,  5493,  5494,  5495,  5496,  5497,  5498,  5499,  5500,  5501,  5502,  5503,  5504
  5505,  5506,  5507,  5508,  5509,  5510,  5511,  5512,  5513,  5514,  5515,  5516,  6446,  6447,  6448,  6449
  6450,  6451,  6452,  6453,  6454,  6455,  6456,  6457,  6458,  6459,  6460,  6461,  6462,  6463,  6464,  6465
  6466,  6467,  6468,  6469,  6470,  6471,  6472,  6473,  6474,  6475,  6476,  6477,  6478,  6479,  6480,  6481
  6482,  6483,  6484,  6485,  6489,  6490,  6491,  6492,  6493,  6494,  6495,  6496,  6497,  6498,  6499,  6501
  6502,  6503,  6504,  6505,  6506,  6507,  6508,  6509,  6510,  6511,  6512,  6513,  6514,  6515,  6516,  6517
  6518,  6519,  6520,  6521,  6522,  6523,  6524,  6525,  6526,  6527,  6528,  6529,  6530,  6531,  6532,  6533
  6534,  6535,  6536,  6537,  6538,  6539,  6540,  6541,  6542,  6543,  6544,  6545,  6546,  6547,  6548,  6549
** ... 175 like lines cut
*Elset, elset=SEAT_S1
    587,    588,    589,    590,    591,    592,    593,    594,    595,    596,    597,    598,    599,    600,    601,    602
    603,    604,    605,    606,    607,    608,    609,    610,    635,    636,    637,    638,    639,    640,    641,    642
    643,    644,    645,    646,    647,    648,    649,    650,    651,    652,    653,    654,    655,    677,    678,    679
    680,    681,    682,    689,    690,    691,    695,    696,    697,    698,    699,    700,    701,    702,    703,    704
    705,    706,    707,    708,    709,    710,    711,    712,    713,    714,    715,    716,    717,    718,    743,    744
    745,    746,    747,    748,    749,    750,    751,    752,    753,    754,    755,    756,    757,    758,    759,    760
    761,    762,    763,    785,    786,    787,    788,    789,    790,    811,    812,    813,    814,    815,    816,    817
    818,    827,    828,    829,    830,    831,    832,    833,    834,    835,    836,    837,    838,    839,    840,    841
    842,    843,    844,    845,    846,    847,    848,    849,    850,    851,    852,    853,    854,    883,    884,    885
    886,    887,    888,    889,    890,    891,    892,    893,    894,    895,    896,    897,    898,    899,    900,    901
    902,    903,    904,    905,    906,    907,    908,    909,    910,    911,    912,    913,    914,    949,    950,    953
    954,    957,    958,    961,    962,    965,    966,    969,    970,    973,    974,    977,    978,   1013,   1014,   1017
   1018,   1021,   1022,   1025,   1026,   1029,   1030,   1033,   1034,   1037,   1038,   1069,   1070,   1073,   1074,   1083
   1084,   1085,   1086,   1967,   1968,   1969,   1970,   1971,   1972,   1973,   1974,   1975,   1976,   1977,   1978,   1991
   1992,   1993,   1994,   1995,   1996,   1997,   1998,   1999,   2000,   2001,   2002,   2003,   2004,   2005,   2006,   2007
   2008,   2009,   2010,   2011,   2012,   2013,   2014,   2039,   2040,   2041,   2042,   2043,   2044,   2045,   2046,   2047
   2048,   2049,   2050,   2051,   2052,   2053,   2054,   2055,   2056,   2057,   2058,   2059,   2060,   2061,   2062,   2063
   2064,   2065,   2066,   2067,   2068,   2069,   2070,   2071,   2072,   2073,   2074,   2119,   2120,   2121,   2122,   2123
   2124,   2125,   2126,   2135,   2136,   2137,   2138,   2139,   2140,   2141,   2142,   2143,   2144,   2145,   2146,   2147
   2148,   2149,   2150,   2167,   2168,   2169,   2170,   2171,   2172,   2173,   2174,   2175,   2176,   2177,   2178,   2179
** ... 4 like lines cut
*Elset, elset=SEAT_S2
    611,    612,    613,    614,    615,    616,    617,    618,    619,    620,    621,    622,    623,    624,    625,    626
    627,    628,    629,    630,    631,    632,    633,    634,    657,    658,    659,    660,    661,    662,    663,    664
    665,    666,    667,    668,    669,    670,    671,    672,    673,    674,    675,    676,    683,    684,    685,    686
    687,    688,    692,    693,    694,    719,    720,    721,    722,    723,    724,    725,    726,    727,    728,    729
    730,    731,    732,    733,    734,    735,    736,    737,    738,    739,    740,    741,    742,    767,    768,    769
    770,    771,    772,    773,    774,    775,    776,    777,    778,    779,    780,    781,    782,    783,    784,    791
    792,    793,    794,    795,    796,    797,    798,    799,    800,    801,    802,    803,    804,    805,    806,    807
    808,    809,    810,    819,    820,    821,    822,    823,    824,    825,    826,    859,    860,    861,    862,    863
    864,    865,    866,    867,    868,    869,    870,    871,    872,    873,    874,    875,    876,    877,    878,    879
    880,    881,    882,    915,    916,    917,    918,    919,    920,    921,    922,    923,    924,    925,    926,    927
    928,    929,    930,    931,    932,    933,    934,    935,    936,    937,    938,    939,    940,    941,    942,    943
    944,    945,    946,    979,    980,    981,    982,    983,    984,    985,    986,    987,    988,    989,    990,    991
    992,    993,    994,    995,    996,    997,    998,    999,   1000,   1001,   1002,   1003,   1004,   1005,   1006,   1007
   1008,   1009,   1010,   1039,   1043,   1044,   1045,   1046,   1047,   1048,   1049,   1050,   1051,   1052,   1053,   1054
   1055,   1056,   1057,   1058,   1059,   1060,   1061,   1062,   1063,   1064,   1065,   1066,   1075,   1077,   1078,   1079
   1081,   1082,   1087,   1088,   1089,   1090,   1979,   1980,   1981,   1982,   1983,   1984,   1985,   1986,   1987,   1988
   1989,   1990,   2015,   2016,   2017,   2018,   2019,   2020,   2021,   2022,   2023,   2024,   2025,   2026,   2027,   2028
   2029,   2030,   2031,   2032,   2033,   2034,   2035,   2036,   2037,   2038,   2075,   2076,   2077,   2078,   2079,   2080
   2081,   2082,   2083,   2084,   2085,   2086,   2087,   2088,   2089,   2090,   2091,   2092,   2093,   2094,   2095,   2096
   2097,   2098,   2099,   2100,   2101,   2102,   2103,   2104,   2105,   2106,   2107,   2108,   2109,   2110,   2127,   2128
** ... 6 like lines cut
*Elset, elset=SEAT_S4
    589,    592,    595,    598,    601,    604,    607,    610,    613,    616,    619,    622,    625,    628,    631,    634
    637,    640,    643,    646,    649,    652,    655,    658,    661,    664,    667,    670,    673,    676,    679,    682
    685,    688,    691,    694,    798,    800,    802,   1083,   1084,   1085,   1086,   1087,   1088,   1089,   1090,   2216
   2218,   2220,   2222,   2224,   2226,   2236,   2238,110260528,110260554,110260558,110260559
*Elset, elset=SEAT_S6
    797,    799,    801,    947,    951,    955,    959,    963,    967,    971,    975,    979,    983,    987,    991,    995
    999,   1003,   1007,   1011,   1015,   1019,   1023,   1027,   1031,   1035,   1039,   1043,   1047,   1051,   1055,   1059
   1063,   1067,   1071,   1075,   1079,   2215,   2217,   2219,   2221,   2223,   2225,   2235,   2237,110260530,110260556
*Elset, elset=SEAT_S3
    689,    690,    691,    692,    693,    694,    803,    804,    805,    806,   1083,   1087,   2039,   2040,   2041,   2042
   2043,   2044,   2075,   2076,   2077,   2078,   2079,   2080,   2167,   2168,   2169,   2170,   2191,   2192,   2193,   2194
   2215,   2216,   2227,   2228,   2229,   2230,   2239,   2240,   2251,   2252,110260506,110260507,110260508,110260509,110260510,110260511
110260512,110260520,110260521,110260522,110260523,110260528,110260529,110260530,110260532,110260534,110260535,110260537,110260546,110260548,110260549,110260554
110260555,110260556,110260564
*Elset, elset=SEAT_S5
    807,    808,    809,    810,   2231,   2232,   2233,   2234,110260513,110260514,110260515,110260516,110260517,110260518,110260519,110260524
110260525,110260526,110260527,110260531,110260539,110260541,110260542,110260544,110260550,110260552,110260553,110260557,110260565,110260569,110260573
*Elset, elset=SEAT
    587,    588,    589,    590,    591,    592,    593,    594,    595,    596,    597,    598,    599,    600,    601,    602
    603,    604,    605,    606,    607,    608,    609,    610,    635,    636,    637,    638,    639,    640,    641,    642
    643,    644,    645,    646,    647,    648,    649,    650,    651,    652,    653,    654,    655,    677,    678,    679
    680,    681,    682,    689,    690,    691,    695,    696,    697,    698,    699,    700,    701,    702,    703,    704
    705,    706,    707,    708,    709,    710,    711,    712,    713,    714,    715,    716,    717,    718,    743,    744
    745,    746,    747,    748,    749,    750,    751,    752,    753,    754,    755,    756,    757,    758,    759,    760
    761,    762,    763,    785,    786,    787,    788,    789,    790,    811,    812,    813,    814,    815,    816,    817
    818,    827,    828,    829,    830,    831,    832,    833,    834,    835,    836,    837,    838,    839,    840,    841
    842,    843,    844,    845,    846,    847,    848,    849,    850,    851,    852,    853,    854,    883,    884,    885
    886,    887,    888,    889,    890,    891,    892,    893,    894,    895,    896,    897,    898,    899,    900,    901
    902,    903,    904,    905,    906,    907,    908,    909,    910,    911,    912,    913,    914,    949,    950,    953
    954,    957,    958,    961,    962,    965,    966,    969,    970,    973,    974,    977,    978,   1013,   1014,   1017
   1018,   1021,   1022,   1025,   1026,   1029,   1030,   1033,   1034,   1037,   1038,   1069,   1070,   1073,   1074,   1083
   1084,   1085,   1086,   1967,   1968,   1969,   1970,   1971,   1972,   1973,   1974,   1975,   1976,   1977,   1978,   1991
   1992,   1993,   1994,   1995,   1996,   1997,   1998,   1999,   2000,   2001,   2002,   2003,   2004,   2005,   2006,   2007
   2008,   2009,   2010,   2011,   2012,   2013,   2014,   2039,   2040,   2041,   2042,   2043,   2044,   2045,   2046,   2047
   2048,   2049,   2050,   2051,   2052,   2053,   2054,   2055,   2056,   2057,   2058,   2059,   2060,   2061,   2062,   2063
   2064,   2065,   2066,   2067,   2068,   2069,   2070,   2071,   2072,   2073,   2074,   2119,   2120,   2121,   2122,   2123
   2124,   2125,   2126,   2135,   2136,   2137,   2138,   2139,   2140,   2141,   2142,   2143,   2144,   2145,   2146,   2147
   2148,   2149,   2150,   2167,   2168,   2169,   2170,   2171,   2172,   2173,   2174,   2175,   2176,   2177,   2178,   2179
** ... 44 like lines cut
*Surface, type=ELEMENT, name=SEAT_STR
SEAT_S1, S1
SEAT_S2, S2
SEAT_S4, S4
SEAT_S6, S6
SEAT_S3, S3
SEAT_S5, S5
*Elset, elset=EG_OUT_S1
 56270, 56271, 56272, 56434, 56435, 56438, 56439, 56442, 56444, 56445, 56504, 56505, 56506, 56507, 56508, 56540
 56541, 56542, 56543, 56544, 56545, 56546, 56547, 56548, 56549
*Elset, elset=EG_OUT_S2
 56530, 56531, 56532, 56533, 56534, 59521, 59522, 59523, 59524, 59527, 59538, 59539, 59540, 59541, 59542, 59543
 59544, 59545, 59546, 59547, 59555, 59793, 59794, 59795, 59802, 59803, 59804, 59807
*Elset, elset=EG_OUT_S3
 56249, 56250, 56251, 56270, 56271, 56272, 56294, 56295, 56296, 56325, 56326, 56327, 56355, 56356, 56357, 56434
 56435, 56448, 56449, 56462, 56463, 56464, 56465, 56476, 56477, 56478, 56479, 56490, 56491, 56504, 56514, 56524
 56530, 59513, 59514, 59515, 59516, 59517, 59543, 59544, 59545, 59546, 59547, 59554, 59771, 59774, 59778, 59779
 59780, 59783, 59790, 59791, 59792, 59795, 59802, 59803, 59804
*Elset, elset=EG_OUT_S4
 56251, 56257, 56263, 56327, 56333, 56339, 56345, 56351, 56357, 56359, 56363, 56367, 56373, 56465, 56468, 56479
 56482, 56549, 56559, 56568, 59491, 59512, 59513, 59521, 59542, 59543, 59772, 59773, 59774, 59778, 59790, 59793
 59794, 59795, 59802
*Elset, elset=EG_OUT_S5
  56349,  56350,  56351,  56444,  56445,  56458,  56459,  56500,  56501,  56547,  56548,  56549,  56557,  56558,  56559,  56566
  56567,  56568,  59553,  59555,  59805,  59806,  59807,110260070
*Elset, elset=EG_OUT_S6
 56270, 56275, 56280, 56284, 56288, 56294, 56300, 56304, 56310, 56316, 56434, 56438, 56442, 56444, 56448, 56452
 56456, 56458, 56462, 56466, 56476, 56480, 56490, 56494, 56498, 56500, 56544, 56554, 56563, 59497, 59508, 59517
 59527, 59538, 59547
*Elset, elset=EG_OUT
 56270, 56271, 56272, 56434, 56435, 56438, 56439, 56442, 56444, 56445, 56504, 56505, 56506, 56507, 56508, 56540
 56541, 56542, 56543, 56544, 56545, 56546, 56547, 56548, 56549,
 56530, 56531, 56532, 56533, 56534, 59521, 59522, 59523, 59524, 59527, 59538, 59539, 59540, 59541, 59542, 59543
 59544, 59545, 59546, 59547, 59555, 59793, 59794, 59795, 59802, 59803, 59804, 59807,
 56249, 56250, 56251, 56270, 56271, 56272, 56294, 56295, 56296, 56325, 56326, 56327, 56355, 56356, 56357, 56434
 56435, 56448, 56449, 56462, 56463, 56464, 56465, 56476, 56477, 56478, 56479, 56490, 56491, 56504, 56514, 56524
 56530, 59513, 59514, 59515, 59516, 59517, 59543, 59544, 59545, 59546, 59547, 59554, 59771, 59774, 59778, 59779
 59780, 59783, 59790, 59791, 59792, 59795, 59802, 59803, 59804,
 56251, 56257, 56263, 56327, 56333, 56339, 56345, 56351, 56357, 56359, 56363, 56367, 56373, 56465, 56468, 56479
 56482, 56549, 56559, 56568, 59491, 59512, 59513, 59521, 59542, 59543, 59772, 59773, 59774, 59778, 59790, 59793
 59794, 59795, 59802,
  56349,  56350,  56351,  56444,  56445,  56458,  56459,  56500,  56501,  56547,  56548,  56549,  56557,  56558,  56559,  56566
  56567,  56568,  59553,  59555,  59805,  59806,  59807,110260070,
 56270, 56275, 56280, 56284, 56288, 56294, 56300, 56304, 56310, 56316, 56434, 56438, 56442, 56444, 56448, 56452
 56456, 56458, 56462, 56466, 56476, 56480, 56490, 56494, 56498, 56500, 56544, 56554, 56563, 59497, 59508, 59517
 59527, 59538, 59547
*Surface, type=ELEMENT, name=EG_STR
EG_OUT_S1, S1
EG_OUT_S2, S2
EG_OUT_S4, S4
EG_OUT_S6, S6
EG_OUT_S3, S3
EG_OUT_S5, S5
** 
** MATERIALS
** 
*Material, name=ELASTIC
*Density
 7.82e-09,
*Elastic
210000., 0.3
*Material, name=SEAT
*Density
 2.5e-10,
*Elastic
2100., 0.3
** ----------------------------------------------------------------
** 
** 
*Nset, nset=output
roof-resp, floor-resp, 
** STEP: Step-1
** 
*Step, name=SSD, perturbation
*Steady State Dynamics, direct, frequency scale=LINEAR, friction damping=NO
40., 150., 15, 1.
** 
** 
** FIELD OUTPUT: F-Output-1
** 
*Output, field
*Node Output
U,
** 
** HISTORY OUTPUT: H-Output-1
** 
*Output, history
*Node Output, nset=OUTPUT
A3,
*End Step
