1

   Abaqus 2023.HF4                                  Date 30-Jun-2024   Time 21:02:44
   For use by AALTO UNIVERSITY under license from Dassault Systemes or its subsidiary.

                                                                                 
                                                                                 
 STEP    1     INCREMENT     1     STEP TIME    0.00    


                        S T E P       1     C O U P L E D - T E M P E R A T U R E - D I S P L A C E M E N T   A N A L Y S I S


                                                                                          

     AUTOMATIC TIME CONTROL WITH -
          A SUGGESTED INITIAL TIME INCREMENT OF                 10.0    
          AND A TOTAL TIME PERIOD OF                           1.000E+03
          THE MINIMUM TIME INCREMENT ALLOWED IS                1.000E-02
          THE MAXIMUM TIME INCREMENT ALLOWED IS                 10.0    

          CREEP AND SWELLING EFFECTS ARE OMITTED IN THIS STEP

     THE SIZE OF THE TIME INCREMENT IS CONTROLLED BY -
          THE TEMPERATURE CHANGE PER INCREMENT NOT EXCEEDING            1.00    
          THE RATE DEPENDENCY WILL BE CONSIDERED IN THIS STEP

          CREEP AND SWELLING EFFECTS WILL BE IGNORED.

 CONVERGENCE TOLERANCE PARAMETERS FOR FORCE    
     CRITERION FOR RESIDUAL FORCE     FOR A NONLINEAR PROBLEM          5.000E-03
     CRITERION FOR DISP.    CORRECTION IN A NONLINEAR PROBLEM          1.000E-02
     INITIAL VALUE OF TIME AVERAGE FORCE                               1.000E-02
     AVERAGE FORCE     IS TIME AVERAGE FORCE    
     ALTERNATE CRIT. FOR RESIDUAL FORCE     FOR A NONLINEAR PROBLEM    2.000E-02
     CRITERION FOR ZERO FORCE     RELATIVE TO TIME AVRG. FORCE         1.000E-05
     CRITERION FOR RESIDUAL FORCE     WHEN THERE IS ZERO FLUX          1.000E-05
     CRITERION FOR DISP.    CORRECTION WHEN THERE IS ZERO FLUX         1.000E-03
     CRITERION FOR RESIDUAL FORCE     FOR A LINEAR INCREMENT           1.000E-08
     FIELD CONVERSION RATIO                                             1.00    
     CRITERION FOR ZERO FORCE     REL. TO TIME AVRG. MAX. FORCE        1.000E-05
     CRITERION FOR ZERO DISP.    RELATIVE TO CHARACTERISTIC LENGTH     1.000E-08

 CONVERGENCE TOLERANCE PARAMETERS FOR HEAT FLUX
     CRITERION FOR RESIDUAL HEAT FLUX FOR A NONLINEAR PROBLEM          5.000E-03
     CRITERION FOR TEMP.    CORRECTION IN A NONLINEAR PROBLEM          1.000E-02
     INITIAL VALUE OF TIME AVERAGE HEAT FLUX                           1.000E-02
     AVERAGE HEAT FLUX IS TIME AVERAGE HEAT FLUX
     ALTERNATE CRIT. FOR RESIDUAL HEAT FLUX FOR A NONLINEAR PROBLEM    2.000E-02
     CRITERION FOR ZERO HEAT FLUX RELATIVE TO TIME AVRG. HEAT FLUX     1.000E-05
     CRITERION FOR RESIDUAL HEAT FLUX WHEN THERE IS ZERO FLUX          1.000E-05
     CRITERION FOR TEMP.    CORRECTION WHEN THERE IS ZERO FLUX         1.000E-03
     CRITERION FOR RESIDUAL HEAT FLUX FOR A LINEAR INCREMENT           1.000E-08
     FIELD CONVERSION RATIO                                             1.00    
     CRITERION FOR ZERO HEAT FLUX REL. TO TIME AVRG. MAX. HEAT FLUX    1.000E-05

     VOLUMETRIC STRAIN COMPATIBILITY TOLERANCE FOR HYBRID SOLIDS       1.000E-05
     AXIAL STRAIN COMPATIBILITY TOLERANCE FOR HYBRID BEAMS             1.000E-05
     TRANS. SHEAR STRAIN COMPATIBILITY TOLERANCE FOR HYBRID BEAMS      1.000E-05
     SOFT CONTACT CONSTRAINT COMPATIBILITY TOLERANCE FOR P>P0          5.000E-03
     SOFT CONTACT CONSTRAINT COMPATIBILITY TOLERANCE FOR P=0.0         0.100    
     CONTACT FORCE ERROR TOLERANCE FOR CONVERT SDI=YES                 1.00    
     DISPLACEMENT COMPATIBILITY TOLERANCE FOR DCOUP ELEMENTS           1.000E-05
     ROTATION COMPATIBILITY TOLERANCE FOR DCOUP ELEMENTS               1.000E-05

 EQUILIBRIUM WILL BE CHECKED FOR SEVERE DISCONTINUITY ITERATIONS

 TIME INCREMENTATION CONTROL PARAMETERS:
     FIRST EQUILIBRIUM ITERATION FOR CONSECUTIVE DIVERGENCE CHECK              4
     EQUILIBRIUM ITERATION AT WHICH LOG. CONVERGENCE RATE CHECK BEGINS         8
     EQUILIBRIUM ITERATION AFTER WHICH ALTERNATE RESIDUAL IS USED              9
     MAXIMUM EQUILIBRIUM ITERATIONS ALLOWED                                   16
     EQUILIBRIUM ITERATION COUNT FOR CUT-BACK IN NEXT INCREMENT               10
     MAXIMUM EQUILIB. ITERS IN TWO INCREMENTS FOR TIME INCREMENT INCREASE      4
     MAXIMUM ITERATIONS FOR SEVERE DISCONTINUITIES                            50
     MAXIMUM ATTEMPTS ALLOWED IN AN INCREMENT                                  5
     MAXIMUM DISCON. ITERS IN TWO INCREMENTS FOR TIME INCREMENT INCREASE      50
     MAXIMUM CONTACT AUGMENTATIONS FOR *SURFACE BEHAVIOR,AUGMENTED LAGRANGE   50
     CONSECUTIVE INCS MEETING TIME INTEG. TOL. FOR TIME INC. INCREASE          3
     CUT-BACK FACTOR AFTER DIVERGENCE                                 0.2500    
     CUT-BACK FACTOR FOR TOO SLOW CONVERGENCE                         0.5000    
     CUT-BACK FACTOR AFTER TOO MANY EQUILIBRIUM ITERATIONS            0.7500    
     CUT-BACK FACTOR AFTER TOO MANY SEVERE DISCONTINUITY ITERATIONS   0.2500    
     CUT-BACK FACTOR AFTER PROBLEMS IN ELEMENT ASSEMBLY               0.2500    
     INCREASE FACTOR AFTER TWO INCREMENTS THAT CONVERGE QUICKLY        1.500    
     MAX. TIME INCREMENT INCREASE FACTOR ALLOWED                       1.500    
     MAX. TIME INCREMENT INCREASE FACTOR ALLOWED (DYNAMICS)            1.250    
     MAX. TIME INCREMENT INCREASE FACTOR ALLOWED (DIFFUSION)           2.000    
     MINIMUM TIME INCREMENT RATIO FOR EXTRAPOLATION TO OCCUR          0.1000    
     CUT-BACK FACTOR WHEN TIME INTEGRATION ACCURACY TOL. EXCEEDED     0.8500    
     MAX. RATIO OF TIME INTEG. MEASURE TO TOL. FOR TIME INC. INCREASE 0.7500    
     INCREASE FACTOR FOR TIME INCREMENT WHEN POSSIBLE                 0.8000    
     MIN. TIME INC. INCREASE FACTOR IN LINEAR TRANSIENT PROBLEMS      0.9500    
     MAX. RATIO OF TIME INCREMENT TO STABILITY LIMIT                   1.000    
     FRACTION OF STABILITY LIMIT FOR NEW TIME INCREMENT               0.9500    
     TIME INCREMENT INCREASE FACTOR BEFORE A TIME POINT                1.000    
     GLOBAL STABILIZATION CONTROL IS NOT USED

          PRINT OF INCREMENT NUMBER, TIME, ETC., EVERY    1  INCREMENTS

     THE MAXIMUM NUMBER OF INCREMENTS IN THIS STEP IS                  100000

          LARGE DISPLACEMENT THEORY WILL BE USED

          UNSYMMETRIC MATRIX STORAGE AND SOLUTION WILL BE USED

     LINEAR EXTRAPOLATION WILL BE USED

     CHARACTERISTIC ELEMENT LENGTH     2.796E-04

     DETAILS REGARDING ACTUAL SOLUTION WAVEFRONT REQUESTED

     DETAILED OUTPUT OF DIAGNOSTICS TO DATABASE REQUESTED

     PRINT OF INCREMENT NUMBER, TIME, ETC., TO THE MESSAGE FILE EVERY     1  INCREMENTS

     ELEMENT OPERATIONS WILL BE CARRIED OUT IN PARALLEL USING   8 THREADS ON 1 DOMAIN

     PARALLEL CONTACT TRACKING ENABLED


     COLLECTING MODEL CONSTRAINT INFORMATION FOR OVERCONSTRAINT CHECKS

     COLLECTING STEP CONSTRAINT INFORMATION FOR OVERCONSTRAINT CHECKS


  INCREMENT     1 STARTS. ATTEMPT NUMBER  1, TIME INCREMENT   10.0    
 
     INITIAL ELEMENT LOAD BALANCE
            DOMAIN    1     THREAD    NUMBER OF ELEMENTS
                              1            7040
                              2            6816
                              3            6664
                              4            6832
                              5            6552
                              6            7272
                              7            6736
                              8            7568
 
	UNSYMMETRIC NEW DIRECT SPARSE SOLVER RUNNING ON
 	1 HOST x 1 MPI RANK PER HOST x 8 THREADS PER RANK
        NUMBER OF EQUATIONS:  258336
        NUMBER OF RHS:        1
        NUMBER OF FLOPS:      7.892e+11
        SOLVER ELAPSED TIME:  3.9s

               CONVERGENCE CHECKS FOR EQUILIBRIUM ITERATION     1


 AVERAGE FORCE                      0.130       TIME AVG. FORCE       0.130    
 LARGEST SCALED RESIDUAL FORCE     -2.616E-03   AT NODE       2902   DOF  3
   INSTANCE: NDBR40-M-1                                                                      
  CORRESPONDING RESIDUAL FORCE     -2.616E-03
 LARGEST INCREMENT OF DISP.         2.100E-05   AT NODE         21   DOF  2
   INSTANCE: NDBR40-M-1                                                                      
 LARGEST CORRECTION TO DISP.        2.100E-05   AT NODE         21   DOF  2
   INSTANCE: NDBR40-M-1                                                                      
          FORCE     EQUILIBRIUM NOT ACHIEVED WITHIN TOLERANCE.

 AVERAGE HEAT FLUX                   0.00       TIME AVG. HEAT FLUX   1.000E-02
 ALL HEAT FLUX RESIDUALS ARE ZERO
 ALL TEMP.    INCREMENTS ARE ZERO
 ALL CORRECTION TO TEMP.    ARE ZERO
          THERE IS ZERO HEAT FLUX EVERYWHERE
 
	UNSYMMETRIC NEW DIRECT SPARSE SOLVER RUNNING ON
 	1 HOST x 1 MPI RANK PER HOST x 8 THREADS PER RANK
        NUMBER OF EQUATIONS:  258336
        NUMBER OF RHS:        1
        NUMBER OF FLOPS:      7.892e+11
        SOLVER ELAPSED TIME:  4.0s

               CONVERGENCE CHECKS FOR EQUILIBRIUM ITERATION     2


 AVERAGE FORCE                      0.130       TIME AVG. FORCE       0.130    
 LARGEST SCALED RESIDUAL FORCE      1.056E-07   AT NODE       1696   DOF  2
   INSTANCE: NDBR40-M-1                                                                      
  CORRESPONDING RESIDUAL FORCE      1.056E-07
 LARGEST INCREMENT OF DISP.         2.100E-05   AT NODE         21   DOF  2
   INSTANCE: NDBR40-M-1                                                                      
 LARGEST CORRECTION TO DISP.       -1.587E-10   AT NODE         31   DOF  3
   INSTANCE: NDBR40-M-1                                                                      
          THE FORCE     EQUILIBRIUM EQUATIONS HAVE CONVERGED

 AVERAGE HEAT FLUX                   0.00       TIME AVG. HEAT FLUX   1.000E-02
 ALL HEAT FLUX RESIDUALS ARE ZERO
 ALL TEMP.    INCREMENTS ARE ZERO
 ALL CORRECTION TO TEMP.    ARE ZERO
          THERE IS ZERO HEAT FLUX EVERYWHERE

 MAXIMUM NON-PRESCRIBED INCREMENT IN TEMPERATURE IS    0.00    

 ITERATION SUMMARY FOR THE INCREMENT:   2 TOTAL ITERATIONS, OF WHICH
   0 ARE SEVERE DISCONTINUITY ITERATIONS AND  2 ARE EQUILIBRIUM ITERATIONS.

 TIME INCREMENT COMPLETED   10.0    ,  FRACTION OF STEP COMPLETED  1.000E-02
 STEP TIME COMPLETED        10.0    ,  TOTAL TIME COMPLETED         10.0    


  INCREMENT     2 STARTS. ATTEMPT NUMBER  1, TIME INCREMENT   10.0    
 
	UNSYMMETRIC NEW DIRECT SPARSE SOLVER RUNNING ON
 	1 HOST x 1 MPI RANK PER HOST x 8 THREADS PER RANK
        NUMBER OF EQUATIONS:  258336
        NUMBER OF RHS:        1
        NUMBER OF FLOPS:      7.892e+11
        SOLVER ELAPSED TIME:  4.1s

               CONVERGENCE CHECKS FOR EQUILIBRIUM ITERATION     1


 AVERAGE FORCE                      0.290       TIME AVG. FORCE       0.210    
 LARGEST SCALED RESIDUAL FORCE      1.454E-07   AT NODE       1696   DOF  2
   INSTANCE: NDBR40-M-1                                                                      
  CORRESPONDING RESIDUAL FORCE      1.454E-07
 LARGEST INCREMENT OF DISP.         2.100E-05   AT NODE         21   DOF  2
   INSTANCE: NDBR40-M-1                                                                      
 LARGEST CORRECTION TO DISP.        2.593E-10   AT NODE        464   DOF  2
   INSTANCE: NDBR40-M-1                                                                      
          THE FORCE     EQUILIBRIUM EQUATIONS HAVE CONVERGED

 AVERAGE HEAT FLUX                   0.00       TIME AVG. HEAT FLUX   1.000E-02
 ALL HEAT FLUX RESIDUALS ARE ZERO
 ALL TEMP.    INCREMENTS ARE ZERO
 ALL CORRECTION TO TEMP.    ARE ZERO
          THERE IS ZERO HEAT FLUX EVERYWHERE

 MAXIMUM NON-PRESCRIBED INCREMENT IN TEMPERATURE IS    0.00    

 ITERATION SUMMARY FOR THE INCREMENT:   1 TOTAL ITERATIONS, OF WHICH
   0 ARE SEVERE DISCONTINUITY ITERATIONS AND  1 ARE EQUILIBRIUM ITERATIONS.

 TIME INCREMENT COMPLETED   10.0    ,  FRACTION OF STEP COMPLETED  2.000E-02
 STEP TIME COMPLETED        20.0    ,  TOTAL TIME COMPLETED         20.0    


  INCREMENT     3 STARTS. ATTEMPT NUMBER  1, TIME INCREMENT   10.0    
 
	UNSYMMETRIC NEW DIRECT SPARSE SOLVER RUNNING ON
 	1 HOST x 1 MPI RANK PER HOST x 8 THREADS PER RANK
        NUMBER OF EQUATIONS:  258336
        NUMBER OF RHS:        1
        NUMBER OF FLOPS:      7.892e+11
        SOLVER ELAPSED TIME:  4.1s

               CONVERGENCE CHECKS FOR EQUILIBRIUM ITERATION     1


 AVERAGE FORCE                      0.435       TIME AVG. FORCE       0.285    
 LARGEST SCALED RESIDUAL FORCE      6.655E-08   AT NODE       1445   DOF  3
   INSTANCE: NDBR40-M-1                                                                      
  CORRESPONDING RESIDUAL FORCE      6.655E-08
 LARGEST INCREMENT OF DISP.         2.100E-05   AT NODE         21   DOF  2
   INSTANCE: NDBR40-M-1                                                                      
 LARGEST CORRECTION TO DISP.        2.594E-10   AT NODE        464   DOF  2
   INSTANCE: NDBR40-M-1                                                                      
          THE FORCE     EQUILIBRIUM EQUATIONS HAVE CONVERGED

 AVERAGE HEAT FLUX                   0.00       TIME AVG. HEAT FLUX   1.000E-02
 ALL HEAT FLUX RESIDUALS ARE ZERO
 ALL TEMP.    INCREMENTS ARE ZERO
 ALL CORRECTION TO TEMP.    ARE ZERO
          THERE IS ZERO HEAT FLUX EVERYWHERE

 MAXIMUM NON-PRESCRIBED INCREMENT IN TEMPERATURE IS    0.00    

 ITERATION SUMMARY FOR THE INCREMENT:   1 TOTAL ITERATIONS, OF WHICH
   0 ARE SEVERE DISCONTINUITY ITERATIONS AND  1 ARE EQUILIBRIUM ITERATIONS.

 TIME INCREMENT COMPLETED   10.0    ,  FRACTION OF STEP COMPLETED  3.000E-02
 STEP TIME COMPLETED        30.0    ,  TOTAL TIME COMPLETED         30.0    


  INCREMENT     4 STARTS. ATTEMPT NUMBER  1, TIME INCREMENT   10.0    
 
	UNSYMMETRIC NEW DIRECT SPARSE SOLVER RUNNING ON
 	1 HOST x 1 MPI RANK PER HOST x 8 THREADS PER RANK
        NUMBER OF EQUATIONS:  258336
        NUMBER OF RHS:        1
        NUMBER OF FLOPS:      7.892e+11
        SOLVER ELAPSED TIME:  4.1s

               CONVERGENCE CHECKS FOR EQUILIBRIUM ITERATION     1


 AVERAGE FORCE                      0.580       TIME AVG. FORCE       0.359    
 LARGEST SCALED RESIDUAL FORCE      9.072E-08   AT NODE       1699   DOF  2
   INSTANCE: NDBR40-M-1                                                                      
  CORRESPONDING RESIDUAL FORCE      9.072E-08
 LARGEST INCREMENT OF DISP.         2.100E-05   AT NODE         21   DOF  2
   INSTANCE: NDBR40-M-1                                                                      
 LARGEST CORRECTION TO DISP.        2.593E-10   AT NODE        386   DOF  2
   INSTANCE: NDBR40-M-1                                                                      
          THE FORCE     EQUILIBRIUM EQUATIONS HAVE CONVERGED

 AVERAGE HEAT FLUX                   0.00       TIME AVG. HEAT FLUX   1.000E-02
 ALL HEAT FLUX RESIDUALS ARE ZERO
 ALL TEMP.    INCREMENTS ARE ZERO
 ALL CORRECTION TO TEMP.    ARE ZERO
          THERE IS ZERO HEAT FLUX EVERYWHERE

 MAXIMUM NON-PRESCRIBED INCREMENT IN TEMPERATURE IS    0.00    

 ITERATION SUMMARY FOR THE INCREMENT:   1 TOTAL ITERATIONS, OF WHICH
   0 ARE SEVERE DISCONTINUITY ITERATIONS AND  1 ARE EQUILIBRIUM ITERATIONS.

 TIME INCREMENT COMPLETED   10.0    ,  FRACTION OF STEP COMPLETED  4.000E-02
 STEP TIME COMPLETED        40.0    ,  TOTAL TIME COMPLETED         40.0    


  INCREMENT     5 STARTS. ATTEMPT NUMBER  1, TIME INCREMENT   10.0    
 
	UNSYMMETRIC NEW DIRECT SPARSE SOLVER RUNNING ON
 	1 HOST x 1 MPI RANK PER HOST x 8 THREADS PER RANK
        NUMBER OF EQUATIONS:  258336
        NUMBER OF RHS:        1
        NUMBER OF FLOPS:      7.892e+11
        SOLVER ELAPSED TIME:  4.1s

               CONVERGENCE CHECKS FOR EQUILIBRIUM ITERATION     1


 AVERAGE FORCE                      0.725       TIME AVG. FORCE       0.432    
 LARGEST SCALED RESIDUAL FORCE      6.649E-08   AT NODE       1445   DOF  3
   INSTANCE: NDBR40-M-1                                                                      
  CORRESPONDING RESIDUAL FORCE      6.649E-08
 LARGEST INCREMENT OF DISP.         2.100E-05   AT NODE         21   DOF  2
   INSTANCE: NDBR40-M-1                                                                      
 LARGEST CORRECTION TO DISP.        2.593E-10   AT NODE        464   DOF  2
   INSTANCE: NDBR40-M-1                                                                      
          THE FORCE     EQUILIBRIUM EQUATIONS HAVE CONVERGED

 AVERAGE HEAT FLUX                   0.00       TIME AVG. HEAT FLUX   1.000E-02
 ALL HEAT FLUX RESIDUALS ARE ZERO
 ALL TEMP.    INCREMENTS ARE ZERO
 ALL CORRECTION TO TEMP.    ARE ZERO
          THERE IS ZERO HEAT FLUX EVERYWHERE

 MAXIMUM NON-PRESCRIBED INCREMENT IN TEMPERATURE IS    0.00    

 ITERATION SUMMARY FOR THE INCREMENT:   1 TOTAL ITERATIONS, OF WHICH
   0 ARE SEVERE DISCONTINUITY ITERATIONS AND  1 ARE EQUILIBRIUM ITERATIONS.

 TIME INCREMENT COMPLETED   10.0    ,  FRACTION OF STEP COMPLETED  5.000E-02
 STEP TIME COMPLETED        50.0    ,  TOTAL TIME COMPLETED         50.0    


  INCREMENT     6 STARTS. ATTEMPT NUMBER  1, TIME INCREMENT   10.0    
 
	UNSYMMETRIC NEW DIRECT SPARSE SOLVER RUNNING ON
 	1 HOST x 1 MPI RANK PER HOST x 8 THREADS PER RANK
        NUMBER OF EQUATIONS:  258336
        NUMBER OF RHS:        1
        NUMBER OF FLOPS:      7.892e+11
        SOLVER ELAPSED TIME:  4.1s

               CONVERGENCE CHECKS FOR EQUILIBRIUM ITERATION     1


 AVERAGE FORCE                      0.870       TIME AVG. FORCE       0.505    
 LARGEST SCALED RESIDUAL FORCE     -6.647E-08   AT NODE       1711   DOF  3
   INSTANCE: NDBR40-M-1                                                                      
  CORRESPONDING RESIDUAL FORCE     -6.647E-08
 LARGEST INCREMENT OF DISP.         2.100E-05   AT NODE         21   DOF  2
   INSTANCE: NDBR40-M-1                                                                      
 LARGEST CORRECTION TO DISP.        2.592E-10   AT NODE        386   DOF  2
   INSTANCE: NDBR40-M-1                                                                      
          THE FORCE     EQUILIBRIUM EQUATIONS HAVE CONVERGED

 AVERAGE HEAT FLUX                   0.00       TIME AVG. HEAT FLUX   1.000E-02
 ALL HEAT FLUX RESIDUALS ARE ZERO
 ALL TEMP.    INCREMENTS ARE ZERO
 ALL CORRECTION TO TEMP.    ARE ZERO
          THERE IS ZERO HEAT FLUX EVERYWHERE

 MAXIMUM NON-PRESCRIBED INCREMENT IN TEMPERATURE IS    0.00    

 ITERATION SUMMARY FOR THE INCREMENT:   1 TOTAL ITERATIONS, OF WHICH
   0 ARE SEVERE DISCONTINUITY ITERATIONS AND  1 ARE EQUILIBRIUM ITERATIONS.

 TIME INCREMENT COMPLETED   10.0    ,  FRACTION OF STEP COMPLETED  6.000E-02
 STEP TIME COMPLETED        60.0    ,  TOTAL TIME COMPLETED         60.0    


  INCREMENT     7 STARTS. ATTEMPT NUMBER  1, TIME INCREMENT   10.0    
 
	UNSYMMETRIC NEW DIRECT SPARSE SOLVER RUNNING ON
 	1 HOST x 1 MPI RANK PER HOST x 8 THREADS PER RANK
        NUMBER OF EQUATIONS:  258336
        NUMBER OF RHS:        1
        NUMBER OF FLOPS:      7.892e+11
        SOLVER ELAPSED TIME:  4.0s

               CONVERGENCE CHECKS FOR EQUILIBRIUM ITERATION     1


 AVERAGE FORCE                       1.01       TIME AVG. FORCE       0.578    
 LARGEST SCALED RESIDUAL FORCE      6.639E-08   AT NODE       1445   DOF  3
   INSTANCE: NDBR40-M-1                                                                      
  CORRESPONDING RESIDUAL FORCE      6.639E-08
 LARGEST INCREMENT OF DISP.         2.100E-05   AT NODE         21   DOF  2
   INSTANCE: NDBR40-M-1                                                                      
 LARGEST CORRECTION TO DISP.        2.592E-10   AT NODE        464   DOF  2
   INSTANCE: NDBR40-M-1                                                                      
          THE FORCE     EQUILIBRIUM EQUATIONS HAVE CONVERGED

 AVERAGE HEAT FLUX                   0.00       TIME AVG. HEAT FLUX   1.000E-02
 ALL HEAT FLUX RESIDUALS ARE ZERO
 ALL TEMP.    INCREMENTS ARE ZERO
 ALL CORRECTION TO TEMP.    ARE ZERO
          THERE IS ZERO HEAT FLUX EVERYWHERE

 MAXIMUM NON-PRESCRIBED INCREMENT IN TEMPERATURE IS    0.00    

 ITERATION SUMMARY FOR THE INCREMENT:   1 TOTAL ITERATIONS, OF WHICH
   0 ARE SEVERE DISCONTINUITY ITERATIONS AND  1 ARE EQUILIBRIUM ITERATIONS.

 TIME INCREMENT COMPLETED   10.0    ,  FRACTION OF STEP COMPLETED  7.000E-02
 STEP TIME COMPLETED        70.0    ,  TOTAL TIME COMPLETED         70.0    


  INCREMENT     8 STARTS. ATTEMPT NUMBER  1, TIME INCREMENT   10.0    
 
	UNSYMMETRIC NEW DIRECT SPARSE SOLVER RUNNING ON
 	1 HOST x 1 MPI RANK PER HOST x 8 THREADS PER RANK
        NUMBER OF EQUATIONS:  258336
        NUMBER OF RHS:        1
        NUMBER OF FLOPS:      7.892e+11
        SOLVER ELAPSED TIME:  4.0s

               CONVERGENCE CHECKS FOR EQUILIBRIUM ITERATION     1


 AVERAGE FORCE                       1.16       TIME AVG. FORCE       0.650    
 LARGEST SCALED RESIDUAL FORCE     -6.635E-08   AT NODE       1711   DOF  3
   INSTANCE: NDBR40-M-1                                                                      
  CORRESPONDING RESIDUAL FORCE     -6.635E-08
 LARGEST INCREMENT OF DISP.         2.100E-05   AT NODE         21   DOF  2
   INSTANCE: NDBR40-M-1                                                                      
 LARGEST CORRECTION TO DISP.        2.591E-10   AT NODE        386   DOF  2
   INSTANCE: NDBR40-M-1                                                                      
          THE FORCE     EQUILIBRIUM EQUATIONS HAVE CONVERGED

 AVERAGE HEAT FLUX                   0.00       TIME AVG. HEAT FLUX   1.000E-02
 ALL HEAT FLUX RESIDUALS ARE ZERO
 ALL TEMP.    INCREMENTS ARE ZERO
 ALL CORRECTION TO TEMP.    ARE ZERO
          THERE IS ZERO HEAT FLUX EVERYWHERE

 MAXIMUM NON-PRESCRIBED INCREMENT IN TEMPERATURE IS    0.00    

 ITERATION SUMMARY FOR THE INCREMENT:   1 TOTAL ITERATIONS, OF WHICH
   0 ARE SEVERE DISCONTINUITY ITERATIONS AND  1 ARE EQUILIBRIUM ITERATIONS.

 TIME INCREMENT COMPLETED   10.0    ,  FRACTION OF STEP COMPLETED  8.000E-02
 STEP TIME COMPLETED        80.0    ,  TOTAL TIME COMPLETED         80.0    


  INCREMENT     9 STARTS. ATTEMPT NUMBER  1, TIME INCREMENT   10.0    
 
	UNSYMMETRIC NEW DIRECT SPARSE SOLVER RUNNING ON
 	1 HOST x 1 MPI RANK PER HOST x 8 THREADS PER RANK
        NUMBER OF EQUATIONS:  258336
        NUMBER OF RHS:        1
        NUMBER OF FLOPS:      7.892e+11
        SOLVER ELAPSED TIME:  4.1s

               CONVERGENCE CHECKS FOR EQUILIBRIUM ITERATION     1


 AVERAGE FORCE                       1.30       TIME AVG. FORCE       0.723    
 LARGEST SCALED RESIDUAL FORCE      6.632E-08   AT NODE       1445   DOF  3
   INSTANCE: NDBR40-M-1                                                                      
  CORRESPONDING RESIDUAL FORCE      6.632E-08
 LARGEST INCREMENT OF DISP.         2.100E-05   AT NODE         21   DOF  2
   INSTANCE: NDBR40-M-1                                                                      
 LARGEST CORRECTION TO DISP.        2.591E-10   AT NODE        464   DOF  2
   INSTANCE: NDBR40-M-1                                                                      
          THE FORCE     EQUILIBRIUM EQUATIONS HAVE CONVERGED

 AVERAGE HEAT FLUX                   0.00       TIME AVG. HEAT FLUX   1.000E-02
 ALL HEAT FLUX RESIDUALS ARE ZERO
 ALL TEMP.    INCREMENTS ARE ZERO
 ALL CORRECTION TO TEMP.    ARE ZERO
          THERE IS ZERO HEAT FLUX EVERYWHERE

 MAXIMUM NON-PRESCRIBED INCREMENT IN TEMPERATURE IS    0.00    

 ITERATION SUMMARY FOR THE INCREMENT:   1 TOTAL ITERATIONS, OF WHICH
   0 ARE SEVERE DISCONTINUITY ITERATIONS AND  1 ARE EQUILIBRIUM ITERATIONS.

 TIME INCREMENT COMPLETED   10.0    ,  FRACTION OF STEP COMPLETED  9.000E-02
 STEP TIME COMPLETED        90.0    ,  TOTAL TIME COMPLETED         90.0    


  INCREMENT    10 STARTS. ATTEMPT NUMBER  1, TIME INCREMENT   10.0    
 
	UNSYMMETRIC NEW DIRECT SPARSE SOLVER RUNNING ON
 	1 HOST x 1 MPI RANK PER HOST x 8 THREADS PER RANK
        NUMBER OF EQUATIONS:  258336
        NUMBER OF RHS:        1
        NUMBER OF FLOPS:      7.892e+11
        SOLVER ELAPSED TIME:  4.1s

               CONVERGENCE CHECKS FOR EQUILIBRIUM ITERATION     1


 AVERAGE FORCE                       1.45       TIME AVG. FORCE       0.796    
 LARGEST SCALED RESIDUAL FORCE      6.628E-08   AT NODE       1445   DOF  3
   INSTANCE: NDBR40-M-1                                                                      
  CORRESPONDING RESIDUAL FORCE      6.628E-08
 LARGEST INCREMENT OF DISP.         2.100E-05   AT NODE         21   DOF  2
   INSTANCE: NDBR40-M-1                                                                      
 LARGEST CORRECTION TO DISP.        2.591E-10   AT NODE        386   DOF  2
   INSTANCE: NDBR40-M-1                                                                      
          THE FORCE     EQUILIBRIUM EQUATIONS HAVE CONVERGED

 AVERAGE HEAT FLUX                   0.00       TIME AVG. HEAT FLUX   1.000E-02
 ALL HEAT FLUX RESIDUALS ARE ZERO
 ALL TEMP.    INCREMENTS ARE ZERO
 ALL CORRECTION TO TEMP.    ARE ZERO
          THERE IS ZERO HEAT FLUX EVERYWHERE

 MAXIMUM NON-PRESCRIBED INCREMENT IN TEMPERATURE IS    0.00    

 ITERATION SUMMARY FOR THE INCREMENT:   1 TOTAL ITERATIONS, OF WHICH
   0 ARE SEVERE DISCONTINUITY ITERATIONS AND  1 ARE EQUILIBRIUM ITERATIONS.

 TIME INCREMENT COMPLETED   10.0    ,  FRACTION OF STEP COMPLETED  0.100    
 STEP TIME COMPLETED        100.    ,  TOTAL TIME COMPLETED         100.    


  INCREMENT    11 STARTS. ATTEMPT NUMBER  1, TIME INCREMENT   10.0    
 
	UNSYMMETRIC NEW DIRECT SPARSE SOLVER RUNNING ON
 	1 HOST x 1 MPI RANK PER HOST x 8 THREADS PER RANK
        NUMBER OF EQUATIONS:  258336
        NUMBER OF RHS:        1
        NUMBER OF FLOPS:      7.892e+11
        SOLVER ELAPSED TIME:  4.1s

               CONVERGENCE CHECKS FOR EQUILIBRIUM ITERATION     1


 AVERAGE FORCE                       1.59       TIME AVG. FORCE       0.868    
 LARGEST SCALED RESIDUAL FORCE      6.626E-08   AT NODE       1445   DOF  3
   INSTANCE: NDBR40-M-1                                                                      
  CORRESPONDING RESIDUAL FORCE      6.626E-08
 LARGEST INCREMENT OF DISP.         2.100E-05   AT NODE         21   DOF  2
   INSTANCE: NDBR40-M-1                                                                      
 LARGEST CORRECTION TO DISP.        2.590E-10   AT NODE        386   DOF  2
   INSTANCE: NDBR40-M-1                                                                      
          THE FORCE     EQUILIBRIUM EQUATIONS HAVE CONVERGED

 AVERAGE HEAT FLUX                   0.00       TIME AVG. HEAT FLUX   1.000E-02
 ALL HEAT FLUX RESIDUALS ARE ZERO
 ALL TEMP.    INCREMENTS ARE ZERO
 ALL CORRECTION TO TEMP.    ARE ZERO
          THERE IS ZERO HEAT FLUX EVERYWHERE

 MAXIMUM NON-PRESCRIBED INCREMENT IN TEMPERATURE IS    0.00    

 ITERATION SUMMARY FOR THE INCREMENT:   1 TOTAL ITERATIONS, OF WHICH
   0 ARE SEVERE DISCONTINUITY ITERATIONS AND  1 ARE EQUILIBRIUM ITERATIONS.

 TIME INCREMENT COMPLETED   10.0    ,  FRACTION OF STEP COMPLETED  0.110    
 STEP TIME COMPLETED        110.    ,  TOTAL TIME COMPLETED         110.    


  INCREMENT    12 STARTS. ATTEMPT NUMBER  1, TIME INCREMENT   10.0    
 
	UNSYMMETRIC NEW DIRECT SPARSE SOLVER RUNNING ON
 	1 HOST x 1 MPI RANK PER HOST x 8 THREADS PER RANK
        NUMBER OF EQUATIONS:  258336
        NUMBER OF RHS:        1
        NUMBER OF FLOPS:      7.892e+11
        SOLVER ELAPSED TIME:  4.0s

               CONVERGENCE CHECKS FOR EQUILIBRIUM ITERATION     1


 AVERAGE FORCE                       1.74       TIME AVG. FORCE       0.941    
 LARGEST SCALED RESIDUAL FORCE      6.623E-08   AT NODE       1445   DOF  3
   INSTANCE: NDBR40-M-1                                                                      
  CORRESPONDING RESIDUAL FORCE      6.623E-08
 LARGEST INCREMENT OF DISP.         2.100E-05   AT NODE         21   DOF  2
   INSTANCE: NDBR40-M-1                                                                      
 LARGEST CORRECTION TO DISP.        2.590E-10   AT NODE        386   DOF  2
   INSTANCE: NDBR40-M-1                                                                      
          THE FORCE     EQUILIBRIUM EQUATIONS HAVE CONVERGED

 AVERAGE HEAT FLUX                   0.00       TIME AVG. HEAT FLUX   1.000E-02
 ALL HEAT FLUX RESIDUALS ARE ZERO
 ALL TEMP.    INCREMENTS ARE ZERO
 ALL CORRECTION TO TEMP.    ARE ZERO
          THERE IS ZERO HEAT FLUX EVERYWHERE

 MAXIMUM NON-PRESCRIBED INCREMENT IN TEMPERATURE IS    0.00    

 ITERATION SUMMARY FOR THE INCREMENT:   1 TOTAL ITERATIONS, OF WHICH
   0 ARE SEVERE DISCONTINUITY ITERATIONS AND  1 ARE EQUILIBRIUM ITERATIONS.

 TIME INCREMENT COMPLETED   10.0    ,  FRACTION OF STEP COMPLETED  0.120    
 STEP TIME COMPLETED        120.    ,  TOTAL TIME COMPLETED         120.    


  INCREMENT    13 STARTS. ATTEMPT NUMBER  1, TIME INCREMENT   10.0    
 
	UNSYMMETRIC NEW DIRECT SPARSE SOLVER RUNNING ON
 	1 HOST x 1 MPI RANK PER HOST x 8 THREADS PER RANK
        NUMBER OF EQUATIONS:  258336
        NUMBER OF RHS:        1
        NUMBER OF FLOPS:      7.892e+11
        SOLVER ELAPSED TIME:  4.0s

               CONVERGENCE CHECKS FOR EQUILIBRIUM ITERATION     1


 AVERAGE FORCE                       1.88       TIME AVG. FORCE        1.01    
 LARGEST SCALED RESIDUAL FORCE      6.621E-08   AT NODE       1445   DOF  3
   INSTANCE: NDBR40-M-1                                                                      
  CORRESPONDING RESIDUAL FORCE      6.621E-08
 LARGEST INCREMENT OF DISP.         2.100E-05   AT NODE         21   DOF  2
   INSTANCE: NDBR40-M-1                                                                      
 LARGEST CORRECTION TO DISP.        2.590E-10   AT NODE        386   DOF  2
   INSTANCE: NDBR40-M-1                                                                      
          THE FORCE     EQUILIBRIUM EQUATIONS HAVE CONVERGED

 AVERAGE HEAT FLUX                   0.00       TIME AVG. HEAT FLUX   1.000E-02
 ALL HEAT FLUX RESIDUALS ARE ZERO
 ALL TEMP.    INCREMENTS ARE ZERO
 ALL CORRECTION TO TEMP.    ARE ZERO
          THERE IS ZERO HEAT FLUX EVERYWHERE

 MAXIMUM NON-PRESCRIBED INCREMENT IN TEMPERATURE IS    0.00    

 ITERATION SUMMARY FOR THE INCREMENT:   1 TOTAL ITERATIONS, OF WHICH
   0 ARE SEVERE DISCONTINUITY ITERATIONS AND  1 ARE EQUILIBRIUM ITERATIONS.

 TIME INCREMENT COMPLETED   10.0    ,  FRACTION OF STEP COMPLETED  0.130    
 STEP TIME COMPLETED        130.    ,  TOTAL TIME COMPLETED         130.    


  INCREMENT    14 STARTS. ATTEMPT NUMBER  1, TIME INCREMENT   10.0    
 
	UNSYMMETRIC NEW DIRECT SPARSE SOLVER RUNNING ON
 	1 HOST x 1 MPI RANK PER HOST x 8 THREADS PER RANK
        NUMBER OF EQUATIONS:  258336
        NUMBER OF RHS:        1
        NUMBER OF FLOPS:      7.892e+11
        SOLVER ELAPSED TIME:  4.2s

               CONVERGENCE CHECKS FOR EQUILIBRIUM ITERATION     1


 AVERAGE FORCE                       2.03       TIME AVG. FORCE        1.09    
 LARGEST SCALED RESIDUAL FORCE      6.619E-08   AT NODE       1445   DOF  3
   INSTANCE: NDBR40-M-1                                                                      
  CORRESPONDING RESIDUAL FORCE      6.619E-08
 LARGEST INCREMENT OF DISP.         2.100E-05   AT NODE         21   DOF  2
   INSTANCE: NDBR40-M-1                                                                      
 LARGEST CORRECTION TO DISP.        2.589E-10   AT NODE        386   DOF  2
   INSTANCE: NDBR40-M-1                                                                      
          THE FORCE     EQUILIBRIUM EQUATIONS HAVE CONVERGED

 AVERAGE HEAT FLUX                   0.00       TIME AVG. HEAT FLUX   1.000E-02
 ALL HEAT FLUX RESIDUALS ARE ZERO
 ALL TEMP.    INCREMENTS ARE ZERO
 ALL CORRECTION TO TEMP.    ARE ZERO
          THERE IS ZERO HEAT FLUX EVERYWHERE

 MAXIMUM NON-PRESCRIBED INCREMENT IN TEMPERATURE IS    0.00    

 ITERATION SUMMARY FOR THE INCREMENT:   1 TOTAL ITERATIONS, OF WHICH
   0 ARE SEVERE DISCONTINUITY ITERATIONS AND  1 ARE EQUILIBRIUM ITERATIONS.

 TIME INCREMENT COMPLETED   10.0    ,  FRACTION OF STEP COMPLETED  0.140    
 STEP TIME COMPLETED        140.    ,  TOTAL TIME COMPLETED         140.    


  INCREMENT    15 STARTS. ATTEMPT NUMBER  1, TIME INCREMENT   10.0    
 
	UNSYMMETRIC NEW DIRECT SPARSE SOLVER RUNNING ON
 	1 HOST x 1 MPI RANK PER HOST x 8 THREADS PER RANK
        NUMBER OF EQUATIONS:  258336
        NUMBER OF RHS:        1
        NUMBER OF FLOPS:      7.892e+11
        SOLVER ELAPSED TIME:  4.1s

               CONVERGENCE CHECKS FOR EQUILIBRIUM ITERATION     1


 AVERAGE FORCE                       2.17       TIME AVG. FORCE        1.16    
 LARGEST SCALED RESIDUAL FORCE      6.616E-08   AT NODE       1445   DOF  3
   INSTANCE: NDBR40-M-1                                                                      
  CORRESPONDING RESIDUAL FORCE      6.616E-08
 LARGEST INCREMENT OF DISP.         2.100E-05   AT NODE         21   DOF  2
   INSTANCE: NDBR40-M-1                                                                      
 LARGEST CORRECTION TO DISP.        2.589E-10   AT NODE        386   DOF  2
   INSTANCE: NDBR40-M-1                                                                      
          THE FORCE     EQUILIBRIUM EQUATIONS HAVE CONVERGED

 AVERAGE HEAT FLUX                   0.00       TIME AVG. HEAT FLUX   1.000E-02
 ALL HEAT FLUX RESIDUALS ARE ZERO
 ALL TEMP.    INCREMENTS ARE ZERO
 ALL CORRECTION TO TEMP.    ARE ZERO
          THERE IS ZERO HEAT FLUX EVERYWHERE

 MAXIMUM NON-PRESCRIBED INCREMENT IN TEMPERATURE IS    0.00    

 ITERATION SUMMARY FOR THE INCREMENT:   1 TOTAL ITERATIONS, OF WHICH
   0 ARE SEVERE DISCONTINUITY ITERATIONS AND  1 ARE EQUILIBRIUM ITERATIONS.

 TIME INCREMENT COMPLETED   10.0    ,  FRACTION OF STEP COMPLETED  0.150    
 STEP TIME COMPLETED        150.    ,  TOTAL TIME COMPLETED         150.    


  INCREMENT    16 STARTS. ATTEMPT NUMBER  1, TIME INCREMENT   10.0    
 
	UNSYMMETRIC NEW DIRECT SPARSE SOLVER RUNNING ON
 	1 HOST x 1 MPI RANK PER HOST x 8 THREADS PER RANK
        NUMBER OF EQUATIONS:  258336
        NUMBER OF RHS:        1
        NUMBER OF FLOPS:      7.892e+11
        SOLVER ELAPSED TIME:  4.0s

               CONVERGENCE CHECKS FOR EQUILIBRIUM ITERATION     1


 AVERAGE FORCE                       2.32       TIME AVG. FORCE        1.23    
 LARGEST SCALED RESIDUAL FORCE      6.614E-08   AT NODE       1445   DOF  3
   INSTANCE: NDBR40-M-1                                                                      
  CORRESPONDING RESIDUAL FORCE      6.614E-08
 LARGEST INCREMENT OF DISP.         2.100E-05   AT NODE         21   DOF  2
   INSTANCE: NDBR40-M-1                                                                      
 LARGEST CORRECTION TO DISP.        2.589E-10   AT NODE        386   DOF  2
   INSTANCE: NDBR40-M-1                                                                      
          THE FORCE     EQUILIBRIUM EQUATIONS HAVE CONVERGED

 AVERAGE HEAT FLUX                   0.00       TIME AVG. HEAT FLUX   1.000E-02
 ALL HEAT FLUX RESIDUALS ARE ZERO
 ALL TEMP.    INCREMENTS ARE ZERO
 ALL CORRECTION TO TEMP.    ARE ZERO
          THERE IS ZERO HEAT FLUX EVERYWHERE

 MAXIMUM NON-PRESCRIBED INCREMENT IN TEMPERATURE IS    0.00    

 ITERATION SUMMARY FOR THE INCREMENT:   1 TOTAL ITERATIONS, OF WHICH
   0 ARE SEVERE DISCONTINUITY ITERATIONS AND  1 ARE EQUILIBRIUM ITERATIONS.

 TIME INCREMENT COMPLETED   10.0    ,  FRACTION OF STEP COMPLETED  0.160    
 STEP TIME COMPLETED        160.    ,  TOTAL TIME COMPLETED         160.    


  INCREMENT    17 STARTS. ATTEMPT NUMBER  1, TIME INCREMENT   10.0    
 
	UNSYMMETRIC NEW DIRECT SPARSE SOLVER RUNNING ON
 	1 HOST x 1 MPI RANK PER HOST x 8 THREADS PER RANK
        NUMBER OF EQUATIONS:  258336
        NUMBER OF RHS:        1
        NUMBER OF FLOPS:      7.892e+11
        SOLVER ELAPSED TIME:  3.9s

               CONVERGENCE CHECKS FOR EQUILIBRIUM ITERATION     1


 AVERAGE FORCE                       2.46       TIME AVG. FORCE        1.30    
 LARGEST SCALED RESIDUAL FORCE      6.611E-08   AT NODE       1445   DOF  3
   INSTANCE: NDBR40-M-1                                                                      
  CORRESPONDING RESIDUAL FORCE      6.611E-08
 LARGEST INCREMENT OF DISP.         2.100E-05   AT NODE         21   DOF  2
   INSTANCE: NDBR40-M-1                                                                      
 LARGEST CORRECTION TO DISP.        2.588E-10   AT NODE        386   DOF  2
   INSTANCE: NDBR40-M-1                                                                      
          THE FORCE     EQUILIBRIUM EQUATIONS HAVE CONVERGED

 AVERAGE HEAT FLUX                   0.00       TIME AVG. HEAT FLUX   1.000E-02
 ALL HEAT FLUX RESIDUALS ARE ZERO
 ALL TEMP.    INCREMENTS ARE ZERO
 ALL CORRECTION TO TEMP.    ARE ZERO
          THERE IS ZERO HEAT FLUX EVERYWHERE

 MAXIMUM NON-PRESCRIBED INCREMENT IN TEMPERATURE IS    0.00    

 ITERATION SUMMARY FOR THE INCREMENT:   1 TOTAL ITERATIONS, OF WHICH
   0 ARE SEVERE DISCONTINUITY ITERATIONS AND  1 ARE EQUILIBRIUM ITERATIONS.

 TIME INCREMENT COMPLETED   10.0    ,  FRACTION OF STEP COMPLETED  0.170    
 STEP TIME COMPLETED        170.    ,  TOTAL TIME COMPLETED         170.    


  INCREMENT    18 STARTS. ATTEMPT NUMBER  1, TIME INCREMENT   10.0    
 
	UNSYMMETRIC NEW DIRECT SPARSE SOLVER RUNNING ON
 	1 HOST x 1 MPI RANK PER HOST x 8 THREADS PER RANK
        NUMBER OF EQUATIONS:  258336
        NUMBER OF RHS:        1
        NUMBER OF FLOPS:      7.892e+11
        SOLVER ELAPSED TIME:  4.1s

               CONVERGENCE CHECKS FOR EQUILIBRIUM ITERATION     1


 AVERAGE FORCE                       2.61       TIME AVG. FORCE        1.38    
 LARGEST SCALED RESIDUAL FORCE      6.609E-08   AT NODE       1445   DOF  3
   INSTANCE: NDBR40-M-1                                                                      
  CORRESPONDING RESIDUAL FORCE      6.609E-08
 LARGEST INCREMENT OF DISP.         2.100E-05   AT NODE         21   DOF  2
   INSTANCE: NDBR40-M-1                                                                      
 LARGEST CORRECTION TO DISP.        2.588E-10   AT NODE        386   DOF  2
   INSTANCE: NDBR40-M-1                                                                      
          THE FORCE     EQUILIBRIUM EQUATIONS HAVE CONVERGED

 AVERAGE HEAT FLUX                   0.00       TIME AVG. HEAT FLUX   1.000E-02
 ALL HEAT FLUX RESIDUALS ARE ZERO
 ALL TEMP.    INCREMENTS ARE ZERO
 ALL CORRECTION TO TEMP.    ARE ZERO
          THERE IS ZERO HEAT FLUX EVERYWHERE

 MAXIMUM NON-PRESCRIBED INCREMENT IN TEMPERATURE IS    0.00    

 ITERATION SUMMARY FOR THE INCREMENT:   1 TOTAL ITERATIONS, OF WHICH
   0 ARE SEVERE DISCONTINUITY ITERATIONS AND  1 ARE EQUILIBRIUM ITERATIONS.

 TIME INCREMENT COMPLETED   10.0    ,  FRACTION OF STEP COMPLETED  0.180    
 STEP TIME COMPLETED        180.    ,  TOTAL TIME COMPLETED         180.    


  INCREMENT    19 STARTS. ATTEMPT NUMBER  1, TIME INCREMENT   10.0    
 
	UNSYMMETRIC NEW DIRECT SPARSE SOLVER RUNNING ON
 	1 HOST x 1 MPI RANK PER HOST x 8 THREADS PER RANK
        NUMBER OF EQUATIONS:  258336
        NUMBER OF RHS:        1
        NUMBER OF FLOPS:      7.892e+11
        SOLVER ELAPSED TIME:  4.1s

               CONVERGENCE CHECKS FOR EQUILIBRIUM ITERATION     1


 AVERAGE FORCE                       2.75       TIME AVG. FORCE        1.45    
 LARGEST SCALED RESIDUAL FORCE      6.606E-08   AT NODE       1445   DOF  3
   INSTANCE: NDBR40-M-1                                                                      
  CORRESPONDING RESIDUAL FORCE      6.606E-08
 LARGEST INCREMENT OF DISP.         2.100E-05   AT NODE         21   DOF  2
   INSTANCE: NDBR40-M-1                                                                      
 LARGEST CORRECTION TO DISP.        2.588E-10   AT NODE        386   DOF  2
   INSTANCE: NDBR40-M-1                                                                      
          THE FORCE     EQUILIBRIUM EQUATIONS HAVE CONVERGED

 AVERAGE HEAT FLUX                   0.00       TIME AVG. HEAT FLUX   1.000E-02
 ALL HEAT FLUX RESIDUALS ARE ZERO
 ALL TEMP.    INCREMENTS ARE ZERO
 ALL CORRECTION TO TEMP.    ARE ZERO
          THERE IS ZERO HEAT FLUX EVERYWHERE

 MAXIMUM NON-PRESCRIBED INCREMENT IN TEMPERATURE IS    0.00    

 ITERATION SUMMARY FOR THE INCREMENT:   1 TOTAL ITERATIONS, OF WHICH
   0 ARE SEVERE DISCONTINUITY ITERATIONS AND  1 ARE EQUILIBRIUM ITERATIONS.

 TIME INCREMENT COMPLETED   10.0    ,  FRACTION OF STEP COMPLETED  0.190    
 STEP TIME COMPLETED        190.    ,  TOTAL TIME COMPLETED         190.    


  INCREMENT    20 STARTS. ATTEMPT NUMBER  1, TIME INCREMENT   10.0    
 
	UNSYMMETRIC NEW DIRECT SPARSE SOLVER RUNNING ON
 	1 HOST x 1 MPI RANK PER HOST x 8 THREADS PER RANK
        NUMBER OF EQUATIONS:  258336
        NUMBER OF RHS:        1
        NUMBER OF FLOPS:      7.892e+11
        SOLVER ELAPSED TIME:  4.1s

               CONVERGENCE CHECKS FOR EQUILIBRIUM ITERATION     1


 AVERAGE FORCE                       2.90       TIME AVG. FORCE        1.52    
 LARGEST SCALED RESIDUAL FORCE      6.604E-08   AT NODE       1445   DOF  3
   INSTANCE: NDBR40-M-1                                                                      
  CORRESPONDING RESIDUAL FORCE      6.604E-08
 LARGEST INCREMENT OF DISP.         2.100E-05   AT NODE         21   DOF  2
   INSTANCE: NDBR40-M-1                                                                      
 LARGEST CORRECTION TO DISP.        2.587E-10   AT NODE        386   DOF  2
   INSTANCE: NDBR40-M-1                                                                      
          THE FORCE     EQUILIBRIUM EQUATIONS HAVE CONVERGED

 AVERAGE HEAT FLUX                   0.00       TIME AVG. HEAT FLUX   1.000E-02
 ALL HEAT FLUX RESIDUALS ARE ZERO
 ALL TEMP.    INCREMENTS ARE ZERO
 ALL CORRECTION TO TEMP.    ARE ZERO
          THERE IS ZERO HEAT FLUX EVERYWHERE

 MAXIMUM NON-PRESCRIBED INCREMENT IN TEMPERATURE IS    0.00    

 ITERATION SUMMARY FOR THE INCREMENT:   1 TOTAL ITERATIONS, OF WHICH
   0 ARE SEVERE DISCONTINUITY ITERATIONS AND  1 ARE EQUILIBRIUM ITERATIONS.

 TIME INCREMENT COMPLETED   10.0    ,  FRACTION OF STEP COMPLETED  0.200    
 STEP TIME COMPLETED        200.    ,  TOTAL TIME COMPLETED         200.    


  INCREMENT    21 STARTS. ATTEMPT NUMBER  1, TIME INCREMENT   10.0    
 
	UNSYMMETRIC NEW DIRECT SPARSE SOLVER RUNNING ON
 	1 HOST x 1 MPI RANK PER HOST x 8 THREADS PER RANK
        NUMBER OF EQUATIONS:  258336
        NUMBER OF RHS:        1
        NUMBER OF FLOPS:      7.892e+11
        SOLVER ELAPSED TIME:  4.0s

               CONVERGENCE CHECKS FOR EQUILIBRIUM ITERATION     1


 AVERAGE FORCE                       3.04       TIME AVG. FORCE        1.59    
 LARGEST SCALED RESIDUAL FORCE      6.601E-08   AT NODE       1445   DOF  3
   INSTANCE: NDBR40-M-1                                                                      
  CORRESPONDING RESIDUAL FORCE      6.601E-08
 LARGEST INCREMENT OF DISP.         2.100E-05   AT NODE         21   DOF  2
   INSTANCE: NDBR40-M-1                                                                      
 LARGEST CORRECTION TO DISP.        2.587E-10   AT NODE        386   DOF  2
   INSTANCE: NDBR40-M-1                                                                      
          THE FORCE     EQUILIBRIUM EQUATIONS HAVE CONVERGED

 AVERAGE HEAT FLUX                   0.00       TIME AVG. HEAT FLUX   1.000E-02
 ALL HEAT FLUX RESIDUALS ARE ZERO
 ALL TEMP.    INCREMENTS ARE ZERO
 ALL CORRECTION TO TEMP.    ARE ZERO
          THERE IS ZERO HEAT FLUX EVERYWHERE

 MAXIMUM NON-PRESCRIBED INCREMENT IN TEMPERATURE IS    0.00    

 ITERATION SUMMARY FOR THE INCREMENT:   1 TOTAL ITERATIONS, OF WHICH
   0 ARE SEVERE DISCONTINUITY ITERATIONS AND  1 ARE EQUILIBRIUM ITERATIONS.

 TIME INCREMENT COMPLETED   10.0    ,  FRACTION OF STEP COMPLETED  0.210    
 STEP TIME COMPLETED        210.    ,  TOTAL TIME COMPLETED         210.    


  INCREMENT    22 STARTS. ATTEMPT NUMBER  1, TIME INCREMENT   10.0    
 
	UNSYMMETRIC NEW DIRECT SPARSE SOLVER RUNNING ON
 	1 HOST x 1 MPI RANK PER HOST x 8 THREADS PER RANK
        NUMBER OF EQUATIONS:  258336
        NUMBER OF RHS:        1
        NUMBER OF FLOPS:      7.892e+11
        SOLVER ELAPSED TIME:  4.1s

               CONVERGENCE CHECKS FOR EQUILIBRIUM ITERATION     1


 AVERAGE FORCE                       3.18       TIME AVG. FORCE        1.66    
 LARGEST SCALED RESIDUAL FORCE      6.599E-08   AT NODE       1445   DOF  3
   INSTANCE: NDBR40-M-1                                                                      
  CORRESPONDING RESIDUAL FORCE      6.599E-08
 LARGEST INCREMENT OF DISP.         2.100E-05   AT NODE         21   DOF  2
   INSTANCE: NDBR40-M-1                                                                      
 LARGEST CORRECTION TO DISP.        2.586E-10   AT NODE        386   DOF  2
   INSTANCE: NDBR40-M-1                                                                      
          THE FORCE     EQUILIBRIUM EQUATIONS HAVE CONVERGED

 AVERAGE HEAT FLUX                   0.00       TIME AVG. HEAT FLUX   1.000E-02
 ALL HEAT FLUX RESIDUALS ARE ZERO
 ALL TEMP.    INCREMENTS ARE ZERO
 ALL CORRECTION TO TEMP.    ARE ZERO
          THERE IS ZERO HEAT FLUX EVERYWHERE

 MAXIMUM NON-PRESCRIBED INCREMENT IN TEMPERATURE IS    0.00    

 ITERATION SUMMARY FOR THE INCREMENT:   1 TOTAL ITERATIONS, OF WHICH
   0 ARE SEVERE DISCONTINUITY ITERATIONS AND  1 ARE EQUILIBRIUM ITERATIONS.

 TIME INCREMENT COMPLETED   10.0    ,  FRACTION OF STEP COMPLETED  0.220    
 STEP TIME COMPLETED        220.    ,  TOTAL TIME COMPLETED         220.    


  INCREMENT    23 STARTS. ATTEMPT NUMBER  1, TIME INCREMENT   10.0    
 
	UNSYMMETRIC NEW DIRECT SPARSE SOLVER RUNNING ON
 	1 HOST x 1 MPI RANK PER HOST x 8 THREADS PER RANK
        NUMBER OF EQUATIONS:  258336
        NUMBER OF RHS:        1
        NUMBER OF FLOPS:      7.892e+11
        SOLVER ELAPSED TIME:  4.0s

               CONVERGENCE CHECKS FOR EQUILIBRIUM ITERATION     1


 AVERAGE FORCE                       3.33       TIME AVG. FORCE        1.74    
 LARGEST SCALED RESIDUAL FORCE      6.597E-08   AT NODE       1445   DOF  3
   INSTANCE: NDBR40-M-1                                                                      
  CORRESPONDING RESIDUAL FORCE      6.597E-08
 LARGEST INCREMENT OF DISP.         2.100E-05   AT NODE         21   DOF  2
   INSTANCE: NDBR40-M-1                                                                      
 LARGEST CORRECTION TO DISP.        2.586E-10   AT NODE        386   DOF  2
   INSTANCE: NDBR40-M-1                                                                      
          THE FORCE     EQUILIBRIUM EQUATIONS HAVE CONVERGED

 AVERAGE HEAT FLUX                   0.00       TIME AVG. HEAT FLUX   1.000E-02
 ALL HEAT FLUX RESIDUALS ARE ZERO
 ALL TEMP.    INCREMENTS ARE ZERO
 ALL CORRECTION TO TEMP.    ARE ZERO
          THERE IS ZERO HEAT FLUX EVERYWHERE

 MAXIMUM NON-PRESCRIBED INCREMENT IN TEMPERATURE IS    0.00    

 ITERATION SUMMARY FOR THE INCREMENT:   1 TOTAL ITERATIONS, OF WHICH
   0 ARE SEVERE DISCONTINUITY ITERATIONS AND  1 ARE EQUILIBRIUM ITERATIONS.

 TIME INCREMENT COMPLETED   10.0    ,  FRACTION OF STEP COMPLETED  0.230    
 STEP TIME COMPLETED        230.    ,  TOTAL TIME COMPLETED         230.    


  INCREMENT    24 STARTS. ATTEMPT NUMBER  1, TIME INCREMENT   10.0    
 
	UNSYMMETRIC NEW DIRECT SPARSE SOLVER RUNNING ON
 	1 HOST x 1 MPI RANK PER HOST x 8 THREADS PER RANK
        NUMBER OF EQUATIONS:  258336
        NUMBER OF RHS:        1
        NUMBER OF FLOPS:      7.892e+11
        SOLVER ELAPSED TIME:  4.0s

               CONVERGENCE CHECKS FOR EQUILIBRIUM ITERATION     1


 AVERAGE FORCE                       3.47       TIME AVG. FORCE        1.81    
 LARGEST SCALED RESIDUAL FORCE      6.594E-08   AT NODE       1445   DOF  3
   INSTANCE: NDBR40-M-1                                                                      
  CORRESPONDING RESIDUAL FORCE      6.594E-08
 LARGEST INCREMENT OF DISP.         2.100E-05   AT NODE         21   DOF  2
   INSTANCE: NDBR40-M-1                                                                      
 LARGEST CORRECTION TO DISP.        2.586E-10   AT NODE        345   DOF  2
   INSTANCE: NDBR40-M-1                                                                      
          THE FORCE     EQUILIBRIUM EQUATIONS HAVE CONVERGED

 AVERAGE HEAT FLUX                   0.00       TIME AVG. HEAT FLUX   1.000E-02
 ALL HEAT FLUX RESIDUALS ARE ZERO
 ALL TEMP.    INCREMENTS ARE ZERO
 ALL CORRECTION TO TEMP.    ARE ZERO
          THERE IS ZERO HEAT FLUX EVERYWHERE

 MAXIMUM NON-PRESCRIBED INCREMENT IN TEMPERATURE IS    0.00    

 ITERATION SUMMARY FOR THE INCREMENT:   1 TOTAL ITERATIONS, OF WHICH
   0 ARE SEVERE DISCONTINUITY ITERATIONS AND  1 ARE EQUILIBRIUM ITERATIONS.

 TIME INCREMENT COMPLETED   10.0    ,  FRACTION OF STEP COMPLETED  0.240    
 STEP TIME COMPLETED        240.    ,  TOTAL TIME COMPLETED         240.    


  INCREMENT    25 STARTS. ATTEMPT NUMBER  1, TIME INCREMENT   10.0    
 
	UNSYMMETRIC NEW DIRECT SPARSE SOLVER RUNNING ON
 	1 HOST x 1 MPI RANK PER HOST x 8 THREADS PER RANK
        NUMBER OF EQUATIONS:  258336
        NUMBER OF RHS:        1
        NUMBER OF FLOPS:      7.892e+11
        SOLVER ELAPSED TIME:  4.0s

               CONVERGENCE CHECKS FOR EQUILIBRIUM ITERATION     1


 AVERAGE FORCE                       3.62       TIME AVG. FORCE        1.88    
 LARGEST SCALED RESIDUAL FORCE      6.592E-08   AT NODE       1445   DOF  3
   INSTANCE: NDBR40-M-1                                                                      
  CORRESPONDING RESIDUAL FORCE      6.592E-08
 LARGEST INCREMENT OF DISP.         2.100E-05   AT NODE         21   DOF  2
   INSTANCE: NDBR40-M-1                                                                      
 LARGEST CORRECTION TO DISP.        2.585E-10   AT NODE        345   DOF  2
   INSTANCE: NDBR40-M-1                                                                      
          THE FORCE     EQUILIBRIUM EQUATIONS HAVE CONVERGED

 AVERAGE HEAT FLUX                   0.00       TIME AVG. HEAT FLUX   1.000E-02
 ALL HEAT FLUX RESIDUALS ARE ZERO
 ALL TEMP.    INCREMENTS ARE ZERO
 ALL CORRECTION TO TEMP.    ARE ZERO
          THERE IS ZERO HEAT FLUX EVERYWHERE

 MAXIMUM NON-PRESCRIBED INCREMENT IN TEMPERATURE IS    0.00    

 ITERATION SUMMARY FOR THE INCREMENT:   1 TOTAL ITERATIONS, OF WHICH
   0 ARE SEVERE DISCONTINUITY ITERATIONS AND  1 ARE EQUILIBRIUM ITERATIONS.

 TIME INCREMENT COMPLETED   10.0    ,  FRACTION OF STEP COMPLETED  0.250    
 STEP TIME COMPLETED        250.    ,  TOTAL TIME COMPLETED         250.    


  INCREMENT    26 STARTS. ATTEMPT NUMBER  1, TIME INCREMENT   10.0    
 
	UNSYMMETRIC NEW DIRECT SPARSE SOLVER RUNNING ON
 	1 HOST x 1 MPI RANK PER HOST x 8 THREADS PER RANK
        NUMBER OF EQUATIONS:  258336
        NUMBER OF RHS:        1
        NUMBER OF FLOPS:      7.892e+11
        SOLVER ELAPSED TIME:  3.9s

               CONVERGENCE CHECKS FOR EQUILIBRIUM ITERATION     1


 AVERAGE FORCE                       3.76       TIME AVG. FORCE        1.95    
 LARGEST SCALED RESIDUAL FORCE      6.589E-08   AT NODE       1445   DOF  3
   INSTANCE: NDBR40-M-1                                                                      
  CORRESPONDING RESIDUAL FORCE      6.589E-08
 LARGEST INCREMENT OF DISP.         2.100E-05   AT NODE         21   DOF  2
   INSTANCE: NDBR40-M-1                                                                      
 LARGEST CORRECTION TO DISP.        2.585E-10   AT NODE        345   DOF  2
   INSTANCE: NDBR40-M-1                                                                      
          THE FORCE     EQUILIBRIUM EQUATIONS HAVE CONVERGED

 AVERAGE HEAT FLUX                   0.00       TIME AVG. HEAT FLUX   1.000E-02
 ALL HEAT FLUX RESIDUALS ARE ZERO
 ALL TEMP.    INCREMENTS ARE ZERO
 ALL CORRECTION TO TEMP.    ARE ZERO
          THERE IS ZERO HEAT FLUX EVERYWHERE

 MAXIMUM NON-PRESCRIBED INCREMENT IN TEMPERATURE IS    0.00    

 ITERATION SUMMARY FOR THE INCREMENT:   1 TOTAL ITERATIONS, OF WHICH
   0 ARE SEVERE DISCONTINUITY ITERATIONS AND  1 ARE EQUILIBRIUM ITERATIONS.

 TIME INCREMENT COMPLETED   10.0    ,  FRACTION OF STEP COMPLETED  0.260    
 STEP TIME COMPLETED        260.    ,  TOTAL TIME COMPLETED         260.    


  INCREMENT    27 STARTS. ATTEMPT NUMBER  1, TIME INCREMENT   10.0    
 
	UNSYMMETRIC NEW DIRECT SPARSE SOLVER RUNNING ON
 	1 HOST x 1 MPI RANK PER HOST x 8 THREADS PER RANK
        NUMBER OF EQUATIONS:  258336
        NUMBER OF RHS:        1
        NUMBER OF FLOPS:      7.892e+11
        SOLVER ELAPSED TIME:  3.9s

               CONVERGENCE CHECKS FOR EQUILIBRIUM ITERATION     1


 AVERAGE FORCE                       3.91       TIME AVG. FORCE        2.03    
 LARGEST SCALED RESIDUAL FORCE      1.615E-03   AT NODE      11115   DOF  2
   INSTANCE: NDBR40-M-1                                                                      
  CORRESPONDING RESIDUAL FORCE      1.615E-03
 LARGEST INCREMENT OF DISP.         2.100E-05   AT NODE         21   DOF  2
   INSTANCE: NDBR40-M-1                                                                      
 LARGEST CORRECTION TO DISP.        3.631E-09   AT NODE      11173   DOF  2
   INSTANCE: NDBR40-M-1                                                                      
          THE FORCE     EQUILIBRIUM EQUATIONS HAVE CONVERGED

 AVERAGE HEAT FLUX                   0.00       TIME AVG. HEAT FLUX   1.000E-02
 ALL HEAT FLUX RESIDUALS ARE ZERO
 ALL TEMP.    INCREMENTS ARE ZERO
 ALL CORRECTION TO TEMP.    ARE ZERO
          THERE IS ZERO HEAT FLUX EVERYWHERE

 MAXIMUM NON-PRESCRIBED INCREMENT IN TEMPERATURE IS    0.00    

 ITERATION SUMMARY FOR THE INCREMENT:   1 TOTAL ITERATIONS, OF WHICH
   0 ARE SEVERE DISCONTINUITY ITERATIONS AND  1 ARE EQUILIBRIUM ITERATIONS.

 TIME INCREMENT COMPLETED   10.0    ,  FRACTION OF STEP COMPLETED  0.270    
 STEP TIME COMPLETED        270.    ,  TOTAL TIME COMPLETED         270.    


  INCREMENT    28 STARTS. ATTEMPT NUMBER  1, TIME INCREMENT   10.0    
 
	UNSYMMETRIC NEW DIRECT SPARSE SOLVER RUNNING ON
 	1 HOST x 1 MPI RANK PER HOST x 8 THREADS PER RANK
        NUMBER OF EQUATIONS:  258336
        NUMBER OF RHS:        1
        NUMBER OF FLOPS:      7.892e+11
        SOLVER ELAPSED TIME:  4.0s

               CONVERGENCE CHECKS FOR EQUILIBRIUM ITERATION     1


 AVERAGE FORCE                       4.06       TIME AVG. FORCE        2.10    
 LARGEST SCALED RESIDUAL FORCE      1.345E-02   AT NODE      21182   DOF  2
   INSTANCE: NDBR40-M-1                                                                      
  CORRESPONDING RESIDUAL FORCE      1.345E-02
 LARGEST INCREMENT OF DISP.         2.100E-05   AT NODE         21   DOF  2
   INSTANCE: NDBR40-M-1                                                                      
 LARGEST CORRECTION TO DISP.        6.709E-08   AT NODE      11163   DOF  2
   INSTANCE: NDBR40-M-1                                                                      
          FORCE     EQUILIBRIUM NOT ACHIEVED WITHIN TOLERANCE.

 AVERAGE HEAT FLUX                   0.00       TIME AVG. HEAT FLUX   1.000E-02
 ALL HEAT FLUX RESIDUALS ARE ZERO
 ALL TEMP.    INCREMENTS ARE ZERO
 ALL CORRECTION TO TEMP.    ARE ZERO
          THERE IS ZERO HEAT FLUX EVERYWHERE
 
	UNSYMMETRIC NEW DIRECT SPARSE SOLVER RUNNING ON
 	1 HOST x 1 MPI RANK PER HOST x 8 THREADS PER RANK
        NUMBER OF EQUATIONS:  258336
        NUMBER OF RHS:        1
        NUMBER OF FLOPS:      7.892e+11
        SOLVER ELAPSED TIME:  4.2s

               CONVERGENCE CHECKS FOR EQUILIBRIUM ITERATION     2


 AVERAGE FORCE                       4.06       TIME AVG. FORCE        2.10    
 LARGEST SCALED RESIDUAL FORCE     -7.484E-04   AT NODE       7153   DOF  2
   INSTANCE: NDBR40-M-1                                                                      
  CORRESPONDING RESIDUAL FORCE     -7.484E-04
 LARGEST INCREMENT OF DISP.         2.100E-05   AT NODE         21   DOF  2
   INSTANCE: NDBR40-M-1                                                                      
 LARGEST CORRECTION TO DISP.        1.111E-09   AT NODE      10907   DOF  2
   INSTANCE: NDBR40-M-1                                                                      
          THE FORCE     EQUILIBRIUM EQUATIONS HAVE CONVERGED

 AVERAGE HEAT FLUX                   0.00       TIME AVG. HEAT FLUX   1.000E-02
 ALL HEAT FLUX RESIDUALS ARE ZERO
 ALL TEMP.    INCREMENTS ARE ZERO
 ALL CORRECTION TO TEMP.    ARE ZERO
          THERE IS ZERO HEAT FLUX EVERYWHERE

 MAXIMUM NON-PRESCRIBED INCREMENT IN TEMPERATURE IS    0.00    

 ITERATION SUMMARY FOR THE INCREMENT:   2 TOTAL ITERATIONS, OF WHICH
   0 ARE SEVERE DISCONTINUITY ITERATIONS AND  2 ARE EQUILIBRIUM ITERATIONS.

 TIME INCREMENT COMPLETED   10.0    ,  FRACTION OF STEP COMPLETED  0.280    
 STEP TIME COMPLETED        280.    ,  TOTAL TIME COMPLETED         280.    


  INCREMENT    29 STARTS. ATTEMPT NUMBER  1, TIME INCREMENT   10.0    
 
	UNSYMMETRIC NEW DIRECT SPARSE SOLVER RUNNING ON
 	1 HOST x 1 MPI RANK PER HOST x 8 THREADS PER RANK
        NUMBER OF EQUATIONS:  258336
        NUMBER OF RHS:        1
        NUMBER OF FLOPS:      7.892e+11
        SOLVER ELAPSED TIME:  4.0s

               CONVERGENCE CHECKS FOR EQUILIBRIUM ITERATION     1


 AVERAGE FORCE                       4.22       TIME AVG. FORCE        2.17    
 LARGEST SCALED RESIDUAL FORCE      3.067E-02   AT NODE      38109   DOF  2
   INSTANCE: NDBR40-M-1                                                                      
  CORRESPONDING RESIDUAL FORCE      3.067E-02
 LARGEST INCREMENT OF DISP.         2.100E-05   AT NODE         21   DOF  2
   INSTANCE: NDBR40-M-1                                                                      
 LARGEST CORRECTION TO DISP.        1.321E-07   AT NODE      10989   DOF  2
   INSTANCE: NDBR40-M-1                                                                      
          FORCE     EQUILIBRIUM NOT ACHIEVED WITHIN TOLERANCE.

 AVERAGE HEAT FLUX                   0.00       TIME AVG. HEAT FLUX   1.000E-02
 ALL HEAT FLUX RESIDUALS ARE ZERO
 ALL TEMP.    INCREMENTS ARE ZERO
 ALL CORRECTION TO TEMP.    ARE ZERO
          THERE IS ZERO HEAT FLUX EVERYWHERE
 
	UNSYMMETRIC NEW DIRECT SPARSE SOLVER RUNNING ON
 	1 HOST x 1 MPI RANK PER HOST x 8 THREADS PER RANK
        NUMBER OF EQUATIONS:  258336
        NUMBER OF RHS:        1
        NUMBER OF FLOPS:      7.892e+11
        SOLVER ELAPSED TIME:  4.3s

               CONVERGENCE CHECKS FOR EQUILIBRIUM ITERATION     2


 AVERAGE FORCE                       4.22       TIME AVG. FORCE        2.17    
 LARGEST SCALED RESIDUAL FORCE     -1.227E-03   AT NODE      40000   DOF  2
   INSTANCE: NDBR40-M-1                                                                      
  CORRESPONDING RESIDUAL FORCE     -1.227E-03
 LARGEST INCREMENT OF DISP.         2.100E-05   AT NODE         21   DOF  2
   INSTANCE: NDBR40-M-1                                                                      
 LARGEST CORRECTION TO DISP.        3.118E-09   AT NODE      38129   DOF  2
   INSTANCE: NDBR40-M-1                                                                      
          THE FORCE     EQUILIBRIUM EQUATIONS HAVE CONVERGED

 AVERAGE HEAT FLUX                   0.00       TIME AVG. HEAT FLUX   1.000E-02
 ALL HEAT FLUX RESIDUALS ARE ZERO
 ALL TEMP.    INCREMENTS ARE ZERO
 ALL CORRECTION TO TEMP.    ARE ZERO
          THERE IS ZERO HEAT FLUX EVERYWHERE

 MAXIMUM NON-PRESCRIBED INCREMENT IN TEMPERATURE IS    0.00    

 ITERATION SUMMARY FOR THE INCREMENT:   2 TOTAL ITERATIONS, OF WHICH
   0 ARE SEVERE DISCONTINUITY ITERATIONS AND  2 ARE EQUILIBRIUM ITERATIONS.

 TIME INCREMENT COMPLETED   10.0    ,  FRACTION OF STEP COMPLETED  0.290    
 STEP TIME COMPLETED        290.    ,  TOTAL TIME COMPLETED         290.    


  INCREMENT    30 STARTS. ATTEMPT NUMBER  1, TIME INCREMENT   10.0    
 
	UNSYMMETRIC NEW DIRECT SPARSE SOLVER RUNNING ON
 	1 HOST x 1 MPI RANK PER HOST x 8 THREADS PER RANK
        NUMBER OF EQUATIONS:  258336
        NUMBER OF RHS:        1
        NUMBER OF FLOPS:      7.892e+11
        SOLVER ELAPSED TIME:  4.1s

               CONVERGENCE CHECKS FOR EQUILIBRIUM ITERATION     1


 AVERAGE FORCE                       4.35       TIME AVG. FORCE        2.25    
 LARGEST SCALED RESIDUAL FORCE      3.937E-02   AT NODE       8149   DOF  3
   INSTANCE: NDBR40-M-1                                                                      
  CORRESPONDING RESIDUAL FORCE      3.937E-02
 LARGEST INCREMENT OF DISP.         2.100E-05   AT NODE         21   DOF  2
   INSTANCE: NDBR40-M-1                                                                      
 LARGEST CORRECTION TO DISP.        1.860E-07   AT NODE      38169   DOF  2
   INSTANCE: NDBR40-M-1                                                                      
          FORCE     EQUILIBRIUM NOT ACHIEVED WITHIN TOLERANCE.

 AVERAGE HEAT FLUX                   0.00       TIME AVG. HEAT FLUX   1.000E-02
 ALL HEAT FLUX RESIDUALS ARE ZERO
 ALL TEMP.    INCREMENTS ARE ZERO
 ALL CORRECTION TO TEMP.    ARE ZERO
          THERE IS ZERO HEAT FLUX EVERYWHERE
 
	UNSYMMETRIC NEW DIRECT SPARSE SOLVER RUNNING ON
 	1 HOST x 1 MPI RANK PER HOST x 8 THREADS PER RANK
        NUMBER OF EQUATIONS:  258336
        NUMBER OF RHS:        1
        NUMBER OF FLOPS:      7.892e+11
        SOLVER ELAPSED TIME:  4.2s

               CONVERGENCE CHECKS FOR EQUILIBRIUM ITERATION     2


 AVERAGE FORCE                       4.35       TIME AVG. FORCE        2.25    
 LARGEST SCALED RESIDUAL FORCE     -1.036E-03   AT NODE       8059   DOF  2
   INSTANCE: NDBR40-M-1                                                                      
  CORRESPONDING RESIDUAL FORCE     -1.036E-03
 LARGEST INCREMENT OF DISP.         2.100E-05   AT NODE         21   DOF  2
   INSTANCE: NDBR40-M-1                                                                      
 LARGEST CORRECTION TO DISP.        5.162E-09   AT NODE      28865   DOF  2
   INSTANCE: NDBR40-M-1                                                                      
          THE FORCE     EQUILIBRIUM EQUATIONS HAVE CONVERGED

 AVERAGE HEAT FLUX                   0.00       TIME AVG. HEAT FLUX   1.000E-02
 ALL HEAT FLUX RESIDUALS ARE ZERO
 ALL TEMP.    INCREMENTS ARE ZERO
 ALL CORRECTION TO TEMP.    ARE ZERO
          THERE IS ZERO HEAT FLUX EVERYWHERE

 MAXIMUM NON-PRESCRIBED INCREMENT IN TEMPERATURE IS    0.00    

 ITERATION SUMMARY FOR THE INCREMENT:   2 TOTAL ITERATIONS, OF WHICH
   0 ARE SEVERE DISCONTINUITY ITERATIONS AND  2 ARE EQUILIBRIUM ITERATIONS.

 TIME INCREMENT COMPLETED   10.0    ,  FRACTION OF STEP COMPLETED  0.300    
 STEP TIME COMPLETED        300.    ,  TOTAL TIME COMPLETED         300.    


  INCREMENT    31 STARTS. ATTEMPT NUMBER  1, TIME INCREMENT   10.0    
 
	UNSYMMETRIC NEW DIRECT SPARSE SOLVER RUNNING ON
 	1 HOST x 1 MPI RANK PER HOST x 8 THREADS PER RANK
        NUMBER OF EQUATIONS:  258336
        NUMBER OF RHS:        1
        NUMBER OF FLOPS:      7.892e+11
        SOLVER ELAPSED TIME:  4.2s

               CONVERGENCE CHECKS FOR EQUILIBRIUM ITERATION     1


 AVERAGE FORCE                       4.52       TIME AVG. FORCE        2.32    
 LARGEST SCALED RESIDUAL FORCE      2.182E-02   AT NODE      37780   DOF  2
   INSTANCE: NDBR40-M-1                                                                      
  CORRESPONDING RESIDUAL FORCE      2.182E-02
 LARGEST INCREMENT OF DISP.         2.100E-05   AT NODE         21   DOF  2
   INSTANCE: NDBR40-M-1                                                                      
 LARGEST CORRECTION TO DISP.        3.948E-07   AT NODE      37819   DOF  2
   INSTANCE: NDBR40-M-1                                                                      
          FORCE     EQUILIBRIUM NOT ACHIEVED WITHIN TOLERANCE.

 AVERAGE HEAT FLUX                   0.00       TIME AVG. HEAT FLUX   1.000E-02
 ALL HEAT FLUX RESIDUALS ARE ZERO
 ALL TEMP.    INCREMENTS ARE ZERO
 ALL CORRECTION TO TEMP.    ARE ZERO
          THERE IS ZERO HEAT FLUX EVERYWHERE
 
	UNSYMMETRIC NEW DIRECT SPARSE SOLVER RUNNING ON
 	1 HOST x 1 MPI RANK PER HOST x 8 THREADS PER RANK
        NUMBER OF EQUATIONS:  258336
        NUMBER OF RHS:        1
        NUMBER OF FLOPS:      7.892e+11
        SOLVER ELAPSED TIME:  4.2s

               CONVERGENCE CHECKS FOR EQUILIBRIUM ITERATION     2


 AVERAGE FORCE                       4.52       TIME AVG. FORCE        2.32    
 LARGEST SCALED RESIDUAL FORCE     -3.664E-04   AT NODE      26269   DOF  2
   INSTANCE: NDBR40-M-1                                                                      
  CORRESPONDING RESIDUAL FORCE     -3.664E-04
 LARGEST INCREMENT OF DISP.         2.100E-05   AT NODE         21   DOF  2
   INSTANCE: NDBR40-M-1                                                                      
 LARGEST CORRECTION TO DISP.        2.246E-09   AT NODE      10999   DOF  2
   INSTANCE: NDBR40-M-1                                                                      
          THE FORCE     EQUILIBRIUM EQUATIONS HAVE CONVERGED

 AVERAGE HEAT FLUX                   0.00       TIME AVG. HEAT FLUX   1.000E-02
 ALL HEAT FLUX RESIDUALS ARE ZERO
 ALL TEMP.    INCREMENTS ARE ZERO
 ALL CORRECTION TO TEMP.    ARE ZERO
          THERE IS ZERO HEAT FLUX EVERYWHERE

 MAXIMUM NON-PRESCRIBED INCREMENT IN TEMPERATURE IS    0.00    

 ITERATION SUMMARY FOR THE INCREMENT:   2 TOTAL ITERATIONS, OF WHICH
   0 ARE SEVERE DISCONTINUITY ITERATIONS AND  2 ARE EQUILIBRIUM ITERATIONS.

 TIME INCREMENT COMPLETED   10.0    ,  FRACTION OF STEP COMPLETED  0.310    
 STEP TIME COMPLETED        310.    ,  TOTAL TIME COMPLETED         310.    


  INCREMENT    32 STARTS. ATTEMPT NUMBER  1, TIME INCREMENT   10.0    
 
	UNSYMMETRIC NEW DIRECT SPARSE SOLVER RUNNING ON
 	1 HOST x 1 MPI RANK PER HOST x 8 THREADS PER RANK
        NUMBER OF EQUATIONS:  258336
        NUMBER OF RHS:        1
        NUMBER OF FLOPS:      7.892e+11
        SOLVER ELAPSED TIME:  4.4s

               CONVERGENCE CHECKS FOR EQUILIBRIUM ITERATION     1


 AVERAGE FORCE                       4.72       TIME AVG. FORCE        2.39    
 LARGEST SCALED RESIDUAL FORCE      4.252E-02   AT NODE        877   DOF  3
   INSTANCE: NDBR40-M-1                                                                      
  CORRESPONDING RESIDUAL FORCE      4.252E-02
 LARGEST INCREMENT OF DISP.         2.100E-05   AT NODE         21   DOF  2
   INSTANCE: NDBR40-M-1                                                                      
 LARGEST CORRECTION TO DISP.        4.551E-07   AT NODE      29844   DOF  2
   INSTANCE: NDBR40-M-1                                                                      
          FORCE     EQUILIBRIUM NOT ACHIEVED WITHIN TOLERANCE.

 AVERAGE HEAT FLUX                   0.00       TIME AVG. HEAT FLUX   1.000E-02
 ALL HEAT FLUX RESIDUALS ARE ZERO
 ALL TEMP.    INCREMENTS ARE ZERO
 ALL CORRECTION TO TEMP.    ARE ZERO
          THERE IS ZERO HEAT FLUX EVERYWHERE
 
	UNSYMMETRIC NEW DIRECT SPARSE SOLVER RUNNING ON
 	1 HOST x 1 MPI RANK PER HOST x 8 THREADS PER RANK
        NUMBER OF EQUATIONS:  258336
        NUMBER OF RHS:        1
        NUMBER OF FLOPS:      7.892e+11
        SOLVER ELAPSED TIME:  4.1s

               CONVERGENCE CHECKS FOR EQUILIBRIUM ITERATION     2


 AVERAGE FORCE                       4.74       TIME AVG. FORCE        2.39    
 LARGEST SCALED RESIDUAL FORCE     -2.429E-03   AT NODE       7381   DOF  3
   INSTANCE: NDBR40-M-1                                                                      
  CORRESPONDING RESIDUAL FORCE     -2.429E-03
 LARGEST INCREMENT OF DISP.         2.100E-05   AT NODE         21   DOF  2
   INSTANCE: NDBR40-M-1                                                                      
 LARGEST CORRECTION TO DISP.        1.206E-08   AT NODE      28835   DOF  2
   INSTANCE: NDBR40-M-1                                                                      
          THE FORCE     EQUILIBRIUM EQUATIONS HAVE CONVERGED

 AVERAGE HEAT FLUX                   0.00       TIME AVG. HEAT FLUX   1.000E-02
 ALL HEAT FLUX RESIDUALS ARE ZERO
 ALL TEMP.    INCREMENTS ARE ZERO
 ALL CORRECTION TO TEMP.    ARE ZERO
          THERE IS ZERO HEAT FLUX EVERYWHERE

 MAXIMUM NON-PRESCRIBED INCREMENT IN TEMPERATURE IS    0.00    

 ITERATION SUMMARY FOR THE INCREMENT:   2 TOTAL ITERATIONS, OF WHICH
   0 ARE SEVERE DISCONTINUITY ITERATIONS AND  2 ARE EQUILIBRIUM ITERATIONS.

 TIME INCREMENT COMPLETED   10.0    ,  FRACTION OF STEP COMPLETED  0.320    
 STEP TIME COMPLETED        320.    ,  TOTAL TIME COMPLETED         320.    


  INCREMENT    33 STARTS. ATTEMPT NUMBER  1, TIME INCREMENT   10.0    
 
	UNSYMMETRIC NEW DIRECT SPARSE SOLVER RUNNING ON
 	1 HOST x 1 MPI RANK PER HOST x 8 THREADS PER RANK
        NUMBER OF EQUATIONS:  258336
        NUMBER OF RHS:        1
        NUMBER OF FLOPS:      7.892e+11
        SOLVER ELAPSED TIME:  4.1s

               CONVERGENCE CHECKS FOR EQUILIBRIUM ITERATION     1


 AVERAGE FORCE                       4.69       TIME AVG. FORCE        2.46    
 LARGEST SCALED RESIDUAL FORCE      7.716E-02   AT NODE        874   DOF  3
   INSTANCE: NDBR40-M-1                                                                      
  CORRESPONDING RESIDUAL FORCE      7.716E-02
 LARGEST INCREMENT OF DISP.         2.100E-05   AT NODE         21   DOF  2
   INSTANCE: NDBR40-M-1                                                                      
 LARGEST CORRECTION TO DISP.        8.829E-07   AT NODE      43852   DOF  2
   INSTANCE: NDBR40-M-1                                                                      
          FORCE     EQUILIBRIUM NOT ACHIEVED WITHIN TOLERANCE.

 AVERAGE HEAT FLUX                   0.00       TIME AVG. HEAT FLUX   1.000E-02
 ALL HEAT FLUX RESIDUALS ARE ZERO
 ALL TEMP.    INCREMENTS ARE ZERO
 ALL CORRECTION TO TEMP.    ARE ZERO
          THERE IS ZERO HEAT FLUX EVERYWHERE
 
	UNSYMMETRIC NEW DIRECT SPARSE SOLVER RUNNING ON
 	1 HOST x 1 MPI RANK PER HOST x 8 THREADS PER RANK
        NUMBER OF EQUATIONS:  258336
        NUMBER OF RHS:        1
        NUMBER OF FLOPS:      7.892e+11
        SOLVER ELAPSED TIME:  4.2s

               CONVERGENCE CHECKS FOR EQUILIBRIUM ITERATION     2


 AVERAGE FORCE                       4.70       TIME AVG. FORCE        2.46    
 LARGEST SCALED RESIDUAL FORCE      2.465E-02   AT NODE        882   DOF  3
   INSTANCE: NDBR40-M-1                                                                      
  CORRESPONDING RESIDUAL FORCE      2.465E-02
 LARGEST INCREMENT OF DISP.         2.100E-05   AT NODE         21   DOF  2
   INSTANCE: NDBR40-M-1                                                                      
 LARGEST CORRECTION TO DISP.        1.121E-07   AT NODE      28763   DOF  2
   INSTANCE: NDBR40-M-1                                                                      
          FORCE     EQUILIBRIUM NOT ACHIEVED WITHIN TOLERANCE.

 AVERAGE HEAT FLUX                   0.00       TIME AVG. HEAT FLUX   1.000E-02
 ALL HEAT FLUX RESIDUALS ARE ZERO
 ALL TEMP.    INCREMENTS ARE ZERO
 ALL CORRECTION TO TEMP.    ARE ZERO
          THERE IS ZERO HEAT FLUX EVERYWHERE
 
	UNSYMMETRIC NEW DIRECT SPARSE SOLVER RUNNING ON
 	1 HOST x 1 MPI RANK PER HOST x 8 THREADS PER RANK
        NUMBER OF EQUATIONS:  258336
        NUMBER OF RHS:        1
        NUMBER OF FLOPS:      7.892e+11
        SOLVER ELAPSED TIME:  4.2s

               CONVERGENCE CHECKS FOR EQUILIBRIUM ITERATION     3


 AVERAGE FORCE                       4.69       TIME AVG. FORCE        2.46    
 LARGEST SCALED RESIDUAL FORCE      2.358E-03   AT NODE       7520   DOF  1
   INSTANCE: NDBR40-M-1                                                                      
  CORRESPONDING RESIDUAL FORCE      2.358E-03
 LARGEST INCREMENT OF DISP.         2.100E-05   AT NODE         21   DOF  2
   INSTANCE: NDBR40-M-1                                                                      
 LARGEST CORRECTION TO DISP.        1.269E-08   AT NODE      28592   DOF  2
   INSTANCE: NDBR40-M-1                                                                      
          THE FORCE     EQUILIBRIUM EQUATIONS HAVE CONVERGED

 AVERAGE HEAT FLUX                   0.00       TIME AVG. HEAT FLUX   1.000E-02
 ALL HEAT FLUX RESIDUALS ARE ZERO
 ALL TEMP.    INCREMENTS ARE ZERO
 ALL CORRECTION TO TEMP.    ARE ZERO
          THERE IS ZERO HEAT FLUX EVERYWHERE

 MAXIMUM NON-PRESCRIBED INCREMENT IN TEMPERATURE IS    0.00    

 ITERATION SUMMARY FOR THE INCREMENT:   3 TOTAL ITERATIONS, OF WHICH
   0 ARE SEVERE DISCONTINUITY ITERATIONS AND  3 ARE EQUILIBRIUM ITERATIONS.

 TIME INCREMENT COMPLETED   10.0    ,  FRACTION OF STEP COMPLETED  0.330    
 STEP TIME COMPLETED        330.    ,  TOTAL TIME COMPLETED         330.    


  INCREMENT    34 STARTS. ATTEMPT NUMBER  1, TIME INCREMENT   10.0    
 
	UNSYMMETRIC NEW DIRECT SPARSE SOLVER RUNNING ON
 	1 HOST x 1 MPI RANK PER HOST x 8 THREADS PER RANK
        NUMBER OF EQUATIONS:  258336
        NUMBER OF RHS:        1
        NUMBER OF FLOPS:      7.892e+11
        SOLVER ELAPSED TIME:  4.2s

               CONVERGENCE CHECKS FOR EQUILIBRIUM ITERATION     1


 AVERAGE FORCE                       4.43       TIME AVG. FORCE        2.52    
 LARGEST SCALED RESIDUAL FORCE       1.17       AT NODE       1018   DOF  3
   INSTANCE: NDBR40-M-1                                                                      
  CORRESPONDING RESIDUAL FORCE       1.17    
 LARGEST INCREMENT OF DISP.         2.100E-05   AT NODE         21   DOF  2
   INSTANCE: NDBR40-M-1                                                                      
 LARGEST CORRECTION TO DISP.        9.252E-06   AT NODE      28909   DOF  2
   INSTANCE: NDBR40-M-1                                                                      
          FORCE     EQUILIBRIUM NOT ACHIEVED WITHIN TOLERANCE.

 AVERAGE HEAT FLUX                   0.00       TIME AVG. HEAT FLUX   1.000E-02
 ALL HEAT FLUX RESIDUALS ARE ZERO
 ALL TEMP.    INCREMENTS ARE ZERO
 ALL CORRECTION TO TEMP.    ARE ZERO
          THERE IS ZERO HEAT FLUX EVERYWHERE
 
	UNSYMMETRIC NEW DIRECT SPARSE SOLVER RUNNING ON
 	1 HOST x 1 MPI RANK PER HOST x 8 THREADS PER RANK
        NUMBER OF EQUATIONS:  258336
        NUMBER OF RHS:        1
        NUMBER OF FLOPS:      7.892e+11
        SOLVER ELAPSED TIME:  4.1s

               CONVERGENCE CHECKS FOR EQUILIBRIUM ITERATION     2


 AVERAGE FORCE                       4.50       TIME AVG. FORCE        2.52    
 LARGEST SCALED RESIDUAL FORCE      -1.17       AT NODE      18789   DOF  2
   INSTANCE: NDBR40-M-1                                                                      
  CORRESPONDING RESIDUAL FORCE      -1.17    
 LARGEST INCREMENT OF DISP.         2.100E-05   AT NODE         21   DOF  2
   INSTANCE: NDBR40-M-1                                                                      
 LARGEST CORRECTION TO DISP.       -6.525E-06   AT NODE      28744   DOF  2
   INSTANCE: NDBR40-M-1                                                                      
          FORCE     EQUILIBRIUM NOT ACHIEVED WITHIN TOLERANCE.

 AVERAGE HEAT FLUX                   0.00       TIME AVG. HEAT FLUX   1.000E-02
 ALL HEAT FLUX RESIDUALS ARE ZERO
 ALL TEMP.    INCREMENTS ARE ZERO
 ALL CORRECTION TO TEMP.    ARE ZERO
          THERE IS ZERO HEAT FLUX EVERYWHERE
 
	UNSYMMETRIC NEW DIRECT SPARSE SOLVER RUNNING ON
 	1 HOST x 1 MPI RANK PER HOST x 8 THREADS PER RANK
        NUMBER OF EQUATIONS:  258336
        NUMBER OF RHS:        1
        NUMBER OF FLOPS:      7.892e+11
        SOLVER ELAPSED TIME:  4.2s

               CONVERGENCE CHECKS FOR EQUILIBRIUM ITERATION     3


 AVERAGE FORCE                       4.56       TIME AVG. FORCE        2.53    
 LARGEST SCALED RESIDUAL FORCE     -0.191       AT NODE      29268   DOF  2
   INSTANCE: NDBR40-M-1                                                                      
  CORRESPONDING RESIDUAL FORCE     -0.191    
 LARGEST INCREMENT OF DISP.         2.100E-05   AT NODE         21   DOF  2
   INSTANCE: NDBR40-M-1                                                                      
 LARGEST CORRECTION TO DISP.        1.010E-06   AT NODE      29372   DOF  2
   INSTANCE: NDBR40-M-1                                                                      
          FORCE     EQUILIBRIUM NOT ACHIEVED WITHIN TOLERANCE.

 AVERAGE HEAT FLUX                   0.00       TIME AVG. HEAT FLUX   1.000E-02
 ALL HEAT FLUX RESIDUALS ARE ZERO
 ALL TEMP.    INCREMENTS ARE ZERO
 ALL CORRECTION TO TEMP.    ARE ZERO
          THERE IS ZERO HEAT FLUX EVERYWHERE
 
	UNSYMMETRIC NEW DIRECT SPARSE SOLVER RUNNING ON
 	1 HOST x 1 MPI RANK PER HOST x 8 THREADS PER RANK
        NUMBER OF EQUATIONS:  258336
        NUMBER OF RHS:        1
        NUMBER OF FLOPS:      7.892e+11
        SOLVER ELAPSED TIME:  4.1s

               CONVERGENCE CHECKS FOR EQUILIBRIUM ITERATION     4


 AVERAGE FORCE                       4.59       TIME AVG. FORCE        2.53    
 LARGEST SCALED RESIDUAL FORCE     -1.545E-02   AT NODE      26159   DOF  2
   INSTANCE: NDBR40-M-1                                                                      
  CORRESPONDING RESIDUAL FORCE     -1.545E-02
 LARGEST INCREMENT OF DISP.         2.100E-05   AT NODE         21   DOF  2
   INSTANCE: NDBR40-M-1                                                                      
 LARGEST CORRECTION TO DISP.       -2.348E-07   AT NODE      29325   DOF  2
   INSTANCE: NDBR40-M-1                                                                      
          FORCE     EQUILIBRIUM NOT ACHIEVED WITHIN TOLERANCE.

 AVERAGE HEAT FLUX                   0.00       TIME AVG. HEAT FLUX   1.000E-02
 ALL HEAT FLUX RESIDUALS ARE ZERO
 ALL TEMP.    INCREMENTS ARE ZERO
 ALL CORRECTION TO TEMP.    ARE ZERO
          THERE IS ZERO HEAT FLUX EVERYWHERE
 
	UNSYMMETRIC NEW DIRECT SPARSE SOLVER RUNNING ON
 	1 HOST x 1 MPI RANK PER HOST x 8 THREADS PER RANK
        NUMBER OF EQUATIONS:  258336
        NUMBER OF RHS:        1
        NUMBER OF FLOPS:      7.892e+11
        SOLVER ELAPSED TIME:  4.3s

               CONVERGENCE CHECKS FOR EQUILIBRIUM ITERATION     5


 AVERAGE FORCE                       4.59       TIME AVG. FORCE        2.53    
 LARGEST SCALED RESIDUAL FORCE     -7.320E-04   AT NODE      29129   DOF  2
   INSTANCE: NDBR40-M-1                                                                      
  CORRESPONDING RESIDUAL FORCE     -7.320E-04
 LARGEST INCREMENT OF DISP.         2.100E-05   AT NODE         21   DOF  2
   INSTANCE: NDBR40-M-1                                                                      
 LARGEST CORRECTION TO DISP.        3.474E-09   AT NODE      29294   DOF  2
   INSTANCE: NDBR40-M-1                                                                      
          THE FORCE     EQUILIBRIUM EQUATIONS HAVE CONVERGED

 AVERAGE HEAT FLUX                   0.00       TIME AVG. HEAT FLUX   1.000E-02
 ALL HEAT FLUX RESIDUALS ARE ZERO
 ALL TEMP.    INCREMENTS ARE ZERO
 ALL CORRECTION TO TEMP.    ARE ZERO
          THERE IS ZERO HEAT FLUX EVERYWHERE

 MAXIMUM NON-PRESCRIBED INCREMENT IN TEMPERATURE IS    0.00    

 ITERATION SUMMARY FOR THE INCREMENT:   5 TOTAL ITERATIONS, OF WHICH
   0 ARE SEVERE DISCONTINUITY ITERATIONS AND  5 ARE EQUILIBRIUM ITERATIONS.

 TIME INCREMENT COMPLETED   10.0    ,  FRACTION OF STEP COMPLETED  0.340    
 STEP TIME COMPLETED        340.    ,  TOTAL TIME COMPLETED         340.    


  INCREMENT    35 STARTS. ATTEMPT NUMBER  1, TIME INCREMENT   10.0    
 
	UNSYMMETRIC NEW DIRECT SPARSE SOLVER RUNNING ON
 	1 HOST x 1 MPI RANK PER HOST x 8 THREADS PER RANK
        NUMBER OF EQUATIONS:  258336
        NUMBER OF RHS:        1
[...]

 MAXIMUM NON-PRESCRIBED INCREMENT IN TEMPERATURE IS    0.00    

 ITERATION SUMMARY FOR THE INCREMENT:   2 TOTAL ITERATIONS, OF WHICH
   0 ARE SEVERE DISCONTINUITY ITERATIONS AND  2 ARE EQUILIBRIUM ITERATIONS.

 TIME INCREMENT COMPLETED   10.0    ,  FRACTION OF STEP COMPLETED  0.950    
 STEP TIME COMPLETED        950.    ,  TOTAL TIME COMPLETED         950.    


  INCREMENT    98 STARTS. ATTEMPT NUMBER  1, TIME INCREMENT   10.0    
 
	UNSYMMETRIC NEW DIRECT SPARSE SOLVER RUNNING ON
 	1 HOST x 1 MPI RANK PER HOST x 8 THREADS PER RANK
        NUMBER OF EQUATIONS:  258336
        NUMBER OF RHS:        1
        NUMBER OF FLOPS:      7.892e+11
        SOLVER ELAPSED TIME:  4.3s

               CONVERGENCE CHECKS FOR EQUILIBRIUM ITERATION     1


 AVERAGE FORCE                       3.24       TIME AVG. FORCE        3.84    
 LARGEST SCALED RESIDUAL FORCE      0.137       AT NODE       8468   DOF  3
   INSTANCE: NDBR40-M-1                                                                      
  CORRESPONDING RESIDUAL FORCE      0.137    
 LARGEST INCREMENT OF DISP.         2.779E-05   AT NODE       1115   DOF  2
   INSTANCE: NDBR40-M-1                                                                      
 LARGEST CORRECTION TO DISP.       -1.638E-06   AT NODE       1056   DOF  1
   INSTANCE: NDBR40-M-1                                                                      
          FORCE     EQUILIBRIUM NOT ACHIEVED WITHIN TOLERANCE.

 AVERAGE HEAT FLUX                   0.00       TIME AVG. HEAT FLUX   1.000E-02
 ALL HEAT FLUX RESIDUALS ARE ZERO
 ALL TEMP.    INCREMENTS ARE ZERO
 ALL CORRECTION TO TEMP.    ARE ZERO
          THERE IS ZERO HEAT FLUX EVERYWHERE
 
	UNSYMMETRIC NEW DIRECT SPARSE SOLVER RUNNING ON
 	1 HOST x 1 MPI RANK PER HOST x 8 THREADS PER RANK
        NUMBER OF EQUATIONS:  258336
        NUMBER OF RHS:        1
        NUMBER OF FLOPS:      7.892e+11
        SOLVER ELAPSED TIME:  4.2s

               CONVERGENCE CHECKS FOR EQUILIBRIUM ITERATION     2


 AVERAGE FORCE                       3.24       TIME AVG. FORCE        3.84    
 LARGEST SCALED RESIDUAL FORCE     -2.870E-03   AT NODE       6649   DOF  2
   INSTANCE: NDBR40-M-1                                                                      
  CORRESPONDING RESIDUAL FORCE     -2.870E-03
 LARGEST INCREMENT OF DISP.         2.786E-05   AT NODE       1115   DOF  2
   INSTANCE: NDBR40-M-1                                                                      
 LARGEST CORRECTION TO DISP.        7.774E-08   AT NODE      19035   DOF  2
   INSTANCE: NDBR40-M-1                                                                      
          THE FORCE     EQUILIBRIUM EQUATIONS HAVE CONVERGED

 AVERAGE HEAT FLUX                   0.00       TIME AVG. HEAT FLUX   1.000E-02
 ALL HEAT FLUX RESIDUALS ARE ZERO
 ALL TEMP.    INCREMENTS ARE ZERO
 ALL CORRECTION TO TEMP.    ARE ZERO
          THERE IS ZERO HEAT FLUX EVERYWHERE

 MAXIMUM NON-PRESCRIBED INCREMENT IN TEMPERATURE IS    0.00    

 ITERATION SUMMARY FOR THE INCREMENT:   2 TOTAL ITERATIONS, OF WHICH
   0 ARE SEVERE DISCONTINUITY ITERATIONS AND  2 ARE EQUILIBRIUM ITERATIONS.

 TIME INCREMENT COMPLETED   10.0    ,  FRACTION OF STEP COMPLETED  0.960    
 STEP TIME COMPLETED        960.    ,  TOTAL TIME COMPLETED         960.    


  INCREMENT    99 STARTS. ATTEMPT NUMBER  1, TIME INCREMENT   10.0    
 
	UNSYMMETRIC NEW DIRECT SPARSE SOLVER RUNNING ON
 	1 HOST x 1 MPI RANK PER HOST x 8 THREADS PER RANK
        NUMBER OF EQUATIONS:  258336
        NUMBER OF RHS:        1
        NUMBER OF FLOPS:      7.892e+11
        SOLVER ELAPSED TIME:  4.2s

               CONVERGENCE CHECKS FOR EQUILIBRIUM ITERATION     1


 AVERAGE FORCE                       3.18       TIME AVG. FORCE        3.83    
 LARGEST SCALED RESIDUAL FORCE      0.144       AT NODE      25972   DOF  1
   INSTANCE: NDBR40-M-1                                                                      
  CORRESPONDING RESIDUAL FORCE      0.144    
 LARGEST INCREMENT OF DISP.         2.750E-05   AT NODE       1115   DOF  2
   INSTANCE: NDBR40-M-1                                                                      
 LARGEST CORRECTION TO DISP.       -1.441E-06   AT NODE       1056   DOF  1
   INSTANCE: NDBR40-M-1                                                                      
          FORCE     EQUILIBRIUM NOT ACHIEVED WITHIN TOLERANCE.

 AVERAGE HEAT FLUX                   0.00       TIME AVG. HEAT FLUX   1.000E-02
 ALL HEAT FLUX RESIDUALS ARE ZERO
 ALL TEMP.    INCREMENTS ARE ZERO
 ALL CORRECTION TO TEMP.    ARE ZERO
          THERE IS ZERO HEAT FLUX EVERYWHERE
 
	UNSYMMETRIC NEW DIRECT SPARSE SOLVER RUNNING ON
 	1 HOST x 1 MPI RANK PER HOST x 8 THREADS PER RANK
        NUMBER OF EQUATIONS:  258336
        NUMBER OF RHS:        1
        NUMBER OF FLOPS:      7.892e+11
        SOLVER ELAPSED TIME:  4.1s

               CONVERGENCE CHECKS FOR EQUILIBRIUM ITERATION     2


 AVERAGE FORCE                       3.18       TIME AVG. FORCE        3.83    
 LARGEST SCALED RESIDUAL FORCE     -8.467E-03   AT NODE      18921   DOF  1
   INSTANCE: NDBR40-M-1                                                                      
  CORRESPONDING RESIDUAL FORCE     -8.467E-03
 LARGEST INCREMENT OF DISP.         2.756E-05   AT NODE       1115   DOF  2
   INSTANCE: NDBR40-M-1                                                                      
 LARGEST CORRECTION TO DISP.        7.081E-08   AT NODE      18981   DOF  2
   INSTANCE: NDBR40-M-1                                                                      
          THE FORCE     EQUILIBRIUM EQUATIONS HAVE CONVERGED

 AVERAGE HEAT FLUX                   0.00       TIME AVG. HEAT FLUX   1.000E-02
 ALL HEAT FLUX RESIDUALS ARE ZERO
 ALL TEMP.    INCREMENTS ARE ZERO
 ALL CORRECTION TO TEMP.    ARE ZERO
          THERE IS ZERO HEAT FLUX EVERYWHERE

 MAXIMUM NON-PRESCRIBED INCREMENT IN TEMPERATURE IS    0.00    

 ITERATION SUMMARY FOR THE INCREMENT:   2 TOTAL ITERATIONS, OF WHICH
   0 ARE SEVERE DISCONTINUITY ITERATIONS AND  2 ARE EQUILIBRIUM ITERATIONS.

 TIME INCREMENT COMPLETED   10.0    ,  FRACTION OF STEP COMPLETED  0.970    
 STEP TIME COMPLETED        970.    ,  TOTAL TIME COMPLETED         970.    


  INCREMENT   100 STARTS. ATTEMPT NUMBER  1, TIME INCREMENT   10.0    
 
	UNSYMMETRIC NEW DIRECT SPARSE SOLVER RUNNING ON
 	1 HOST x 1 MPI RANK PER HOST x 8 THREADS PER RANK
        NUMBER OF EQUATIONS:  258336
        NUMBER OF RHS:        1
        NUMBER OF FLOPS:      7.892e+11
        SOLVER ELAPSED TIME:  4.0s

               CONVERGENCE CHECKS FOR EQUILIBRIUM ITERATION     1


 AVERAGE FORCE                       3.12       TIME AVG. FORCE        3.82    
 LARGEST SCALED RESIDUAL FORCE     -0.201       AT NODE       9952   DOF  3
   INSTANCE: NDBR40-M-1                                                                      
  CORRESPONDING RESIDUAL FORCE     -0.201    
 LARGEST INCREMENT OF DISP.         2.721E-05   AT NODE       1114   DOF  2
   INSTANCE: NDBR40-M-1                                                                      
 LARGEST CORRECTION TO DISP.       -1.193E-06   AT NODE       1056   DOF  1
   INSTANCE: NDBR40-M-1                                                                      
          FORCE     EQUILIBRIUM NOT ACHIEVED WITHIN TOLERANCE.

 AVERAGE HEAT FLUX                   0.00       TIME AVG. HEAT FLUX   1.000E-02
 ALL HEAT FLUX RESIDUALS ARE ZERO
 ALL TEMP.    INCREMENTS ARE ZERO
 ALL CORRECTION TO TEMP.    ARE ZERO
          THERE IS ZERO HEAT FLUX EVERYWHERE
 
	UNSYMMETRIC NEW DIRECT SPARSE SOLVER RUNNING ON
 	1 HOST x 1 MPI RANK PER HOST x 8 THREADS PER RANK
        NUMBER OF EQUATIONS:  258336
        NUMBER OF RHS:        1
        NUMBER OF FLOPS:      7.892e+11
        SOLVER ELAPSED TIME:  4.1s

               CONVERGENCE CHECKS FOR EQUILIBRIUM ITERATION     2


 AVERAGE FORCE                       3.12       TIME AVG. FORCE        3.82    
 LARGEST SCALED RESIDUAL FORCE     -1.491E-02   AT NODE      18868   DOF  2
   INSTANCE: NDBR40-M-1                                                                      
  CORRESPONDING RESIDUAL FORCE     -1.491E-02
 LARGEST INCREMENT OF DISP.         2.727E-05   AT NODE       1114   DOF  2
   INSTANCE: NDBR40-M-1                                                                      
 LARGEST CORRECTION TO DISP.        6.522E-08   AT NODE      18981   DOF  2
   INSTANCE: NDBR40-M-1                                                                      
          THE FORCE     EQUILIBRIUM EQUATIONS HAVE CONVERGED

 AVERAGE HEAT FLUX                   0.00       TIME AVG. HEAT FLUX   1.000E-02
 ALL HEAT FLUX RESIDUALS ARE ZERO
 ALL TEMP.    INCREMENTS ARE ZERO
 ALL CORRECTION TO TEMP.    ARE ZERO
          THERE IS ZERO HEAT FLUX EVERYWHERE

 MAXIMUM NON-PRESCRIBED INCREMENT IN TEMPERATURE IS    0.00    

 ITERATION SUMMARY FOR THE INCREMENT:   2 TOTAL ITERATIONS, OF WHICH
   0 ARE SEVERE DISCONTINUITY ITERATIONS AND  2 ARE EQUILIBRIUM ITERATIONS.

 TIME INCREMENT COMPLETED   10.0    ,  FRACTION OF STEP COMPLETED  0.980    
 STEP TIME COMPLETED        980.    ,  TOTAL TIME COMPLETED         980.    


  INCREMENT   101 STARTS. ATTEMPT NUMBER  1, TIME INCREMENT   10.0    
 
	UNSYMMETRIC NEW DIRECT SPARSE SOLVER RUNNING ON
 	1 HOST x 1 MPI RANK PER HOST x 8 THREADS PER RANK
        NUMBER OF EQUATIONS:  258336
        NUMBER OF RHS:        1
        NUMBER OF FLOPS:      7.892e+11
        SOLVER ELAPSED TIME:  4.2s

               CONVERGENCE CHECKS FOR EQUILIBRIUM ITERATION     1


 AVERAGE FORCE                       3.07       TIME AVG. FORCE        3.82    
 LARGEST SCALED RESIDUAL FORCE      -1.13       AT NODE      10974   DOF  1
   INSTANCE: NDBR40-M-1                                                                      
  CORRESPONDING RESIDUAL FORCE      -1.13    
 LARGEST INCREMENT OF DISP.         2.703E-05   AT NODE      10974   DOF  2
   INSTANCE: NDBR40-M-1                                                                      
 LARGEST CORRECTION TO DISP.       -9.188E-07   AT NODE       1056   DOF  1
   INSTANCE: NDBR40-M-1                                                                      
          FORCE     EQUILIBRIUM NOT ACHIEVED WITHIN TOLERANCE.

 AVERAGE HEAT FLUX                   0.00       TIME AVG. HEAT FLUX   1.000E-02
 ALL HEAT FLUX RESIDUALS ARE ZERO
 ALL TEMP.    INCREMENTS ARE ZERO
 ALL CORRECTION TO TEMP.    ARE ZERO
          THERE IS ZERO HEAT FLUX EVERYWHERE
 
	UNSYMMETRIC NEW DIRECT SPARSE SOLVER RUNNING ON
 	1 HOST x 1 MPI RANK PER HOST x 8 THREADS PER RANK
        NUMBER OF EQUATIONS:  258336
        NUMBER OF RHS:        1
        NUMBER OF FLOPS:      7.892e+11
        SOLVER ELAPSED TIME:  4.2s

               CONVERGENCE CHECKS FOR EQUILIBRIUM ITERATION     2


 AVERAGE FORCE                       3.07       TIME AVG. FORCE        3.82    
 LARGEST SCALED RESIDUAL FORCE      0.337       AT NODE       8463   DOF  3
   INSTANCE: NDBR40-M-1                                                                      
  CORRESPONDING RESIDUAL FORCE      0.337    
 LARGEST INCREMENT OF DISP.         2.701E-05   AT NODE      10974   DOF  2
   INSTANCE: NDBR40-M-1                                                                      
 LARGEST CORRECTION TO DISP.       -1.825E-07   AT NODE      10974   DOF  1
   INSTANCE: NDBR40-M-1                                                                      
          FORCE     EQUILIBRIUM NOT ACHIEVED WITHIN TOLERANCE.

 AVERAGE HEAT FLUX                   0.00       TIME AVG. HEAT FLUX   1.000E-02
 ALL HEAT FLUX RESIDUALS ARE ZERO
 ALL TEMP.    INCREMENTS ARE ZERO
 ALL CORRECTION TO TEMP.    ARE ZERO
          THERE IS ZERO HEAT FLUX EVERYWHERE
 
	UNSYMMETRIC NEW DIRECT SPARSE SOLVER RUNNING ON
 	1 HOST x 1 MPI RANK PER HOST x 8 THREADS PER RANK
        NUMBER OF EQUATIONS:  258336
        NUMBER OF RHS:        1
        NUMBER OF FLOPS:      7.892e+11
        SOLVER ELAPSED TIME:  4.2s

               CONVERGENCE CHECKS FOR EQUILIBRIUM ITERATION     3


 AVERAGE FORCE                       3.07       TIME AVG. FORCE        3.82    
 LARGEST SCALED RESIDUAL FORCE      3.746E-02   AT NODE       7869   DOF  1
   INSTANCE: NDBR40-M-1                                                                      
  CORRESPONDING RESIDUAL FORCE      3.746E-02
 LARGEST INCREMENT OF DISP.         2.700E-05   AT NODE      10974   DOF  2
   INSTANCE: NDBR40-M-1                                                                      
 LARGEST CORRECTION TO DISP.       -6.217E-08   AT NODE       1116   DOF  1
   INSTANCE: NDBR40-M-1                                                                      
          FORCE     EQUILIBRIUM NOT ACHIEVED WITHIN TOLERANCE.

 AVERAGE HEAT FLUX                   0.00       TIME AVG. HEAT FLUX   1.000E-02
 ALL HEAT FLUX RESIDUALS ARE ZERO
 ALL TEMP.    INCREMENTS ARE ZERO
 ALL CORRECTION TO TEMP.    ARE ZERO
          THERE IS ZERO HEAT FLUX EVERYWHERE
 
	UNSYMMETRIC NEW DIRECT SPARSE SOLVER RUNNING ON
 	1 HOST x 1 MPI RANK PER HOST x 8 THREADS PER RANK
        NUMBER OF EQUATIONS:  258336
        NUMBER OF RHS:        1
        NUMBER OF FLOPS:      7.892e+11
        SOLVER ELAPSED TIME:  4.2s

               CONVERGENCE CHECKS FOR EQUILIBRIUM ITERATION     4


 AVERAGE FORCE                       3.07       TIME AVG. FORCE        3.82    
 LARGEST SCALED RESIDUAL FORCE      4.923E-03   AT NODE      18926   DOF  1
   INSTANCE: NDBR40-M-1                                                                      
  CORRESPONDING RESIDUAL FORCE      4.923E-03
 LARGEST INCREMENT OF DISP.         2.700E-05   AT NODE      10974   DOF  2
   INSTANCE: NDBR40-M-1                                                                      
 LARGEST CORRECTION TO DISP.       -9.476E-09   AT NODE       1116   DOF  1
   INSTANCE: NDBR40-M-1                                                                      
          THE FORCE     EQUILIBRIUM EQUATIONS HAVE CONVERGED

 AVERAGE HEAT FLUX                   0.00       TIME AVG. HEAT FLUX   1.000E-02
 ALL HEAT FLUX RESIDUALS ARE ZERO
 ALL TEMP.    INCREMENTS ARE ZERO
 ALL CORRECTION TO TEMP.    ARE ZERO
          THERE IS ZERO HEAT FLUX EVERYWHERE

 MAXIMUM NON-PRESCRIBED INCREMENT IN TEMPERATURE IS    0.00    

 ITERATION SUMMARY FOR THE INCREMENT:   4 TOTAL ITERATIONS, OF WHICH
   0 ARE SEVERE DISCONTINUITY ITERATIONS AND  4 ARE EQUILIBRIUM ITERATIONS.

 TIME INCREMENT COMPLETED   10.0    ,  FRACTION OF STEP COMPLETED  0.990    
 STEP TIME COMPLETED        990.    ,  TOTAL TIME COMPLETED         990.    


  INCREMENT   102 STARTS. ATTEMPT NUMBER  1, TIME INCREMENT   10.0    
 
	UNSYMMETRIC NEW DIRECT SPARSE SOLVER RUNNING ON
 	1 HOST x 1 MPI RANK PER HOST x 8 THREADS PER RANK
        NUMBER OF EQUATIONS:  258336
        NUMBER OF RHS:        1
        NUMBER OF FLOPS:      7.892e+11
        SOLVER ELAPSED TIME:  4.2s

               CONVERGENCE CHECKS FOR EQUILIBRIUM ITERATION     1


 AVERAGE FORCE                       3.02       TIME AVG. FORCE        3.81    
 LARGEST SCALED RESIDUAL FORCE       1.46       AT NODE       5114   DOF  3
   INSTANCE: NDBR40-M-1                                                                      
  CORRESPONDING RESIDUAL FORCE       1.46    
 LARGEST INCREMENT OF DISP.         2.678E-05   AT NODE       1116   DOF  2
   INSTANCE: NDBR40-M-1                                                                      
 LARGEST CORRECTION TO DISP.       -7.799E-07   AT NODE       7814   DOF  1
   INSTANCE: NDBR40-M-1                                                                      
          FORCE     EQUILIBRIUM NOT ACHIEVED WITHIN TOLERANCE.

 AVERAGE HEAT FLUX                   0.00       TIME AVG. HEAT FLUX   1.000E-02
 ALL HEAT FLUX RESIDUALS ARE ZERO
 ALL TEMP.    INCREMENTS ARE ZERO
 ALL CORRECTION TO TEMP.    ARE ZERO
          THERE IS ZERO HEAT FLUX EVERYWHERE
 
	UNSYMMETRIC NEW DIRECT SPARSE SOLVER RUNNING ON
 	1 HOST x 1 MPI RANK PER HOST x 8 THREADS PER RANK
        NUMBER OF EQUATIONS:  258336
        NUMBER OF RHS:        1
        NUMBER OF FLOPS:      7.892e+11
        SOLVER ELAPSED TIME:  4.3s

               CONVERGENCE CHECKS FOR EQUILIBRIUM ITERATION     2


 AVERAGE FORCE                       3.02       TIME AVG. FORCE        3.81    
 LARGEST SCALED RESIDUAL FORCE     -6.948E-02   AT NODE       6598   DOF  3
   INSTANCE: NDBR40-M-1                                                                      
  CORRESPONDING RESIDUAL FORCE     -6.948E-02
 LARGEST INCREMENT OF DISP.         2.675E-05   AT NODE       1116   DOF  2
   INSTANCE: NDBR40-M-1                                                                      
 LARGEST CORRECTION TO DISP.        1.910E-07   AT NODE       1056   DOF  1
   INSTANCE: NDBR40-M-1                                                                      
          FORCE     EQUILIBRIUM NOT ACHIEVED WITHIN TOLERANCE.

 AVERAGE HEAT FLUX                   0.00       TIME AVG. HEAT FLUX   1.000E-02
 ALL HEAT FLUX RESIDUALS ARE ZERO
 ALL TEMP.    INCREMENTS ARE ZERO
 ALL CORRECTION TO TEMP.    ARE ZERO
          THERE IS ZERO HEAT FLUX EVERYWHERE
 
	UNSYMMETRIC NEW DIRECT SPARSE SOLVER RUNNING ON
 	1 HOST x 1 MPI RANK PER HOST x 8 THREADS PER RANK
        NUMBER OF EQUATIONS:  258336
        NUMBER OF RHS:        1
        NUMBER OF FLOPS:      7.892e+11
        SOLVER ELAPSED TIME:  4.1s

               CONVERGENCE CHECKS FOR EQUILIBRIUM ITERATION     3


 AVERAGE FORCE                       3.02       TIME AVG. FORCE        3.81    
 LARGEST SCALED RESIDUAL FORCE     -2.466E-04   AT NODE       6653   DOF  2
   INSTANCE: NDBR40-M-1                                                                      
  CORRESPONDING RESIDUAL FORCE     -2.466E-04
 LARGEST INCREMENT OF DISP.         2.675E-05   AT NODE       1116   DOF  2
   INSTANCE: NDBR40-M-1                                                                      
 LARGEST CORRECTION TO DISP.       -4.733E-09   AT NODE       6598   DOF  3
   INSTANCE: NDBR40-M-1                                                                      
          THE FORCE     EQUILIBRIUM EQUATIONS HAVE CONVERGED

 AVERAGE HEAT FLUX                   0.00       TIME AVG. HEAT FLUX   1.000E-02
 ALL HEAT FLUX RESIDUALS ARE ZERO
 ALL TEMP.    INCREMENTS ARE ZERO
 ALL CORRECTION TO TEMP.    ARE ZERO
          THERE IS ZERO HEAT FLUX EVERYWHERE

 MAXIMUM NON-PRESCRIBED INCREMENT IN TEMPERATURE IS    0.00    

 ITERATION SUMMARY FOR THE INCREMENT:   3 TOTAL ITERATIONS, OF WHICH
   0 ARE SEVERE DISCONTINUITY ITERATIONS AND  3 ARE EQUILIBRIUM ITERATIONS.

 TIME INCREMENT COMPLETED   10.0    ,  FRACTION OF STEP COMPLETED   1.00    
 STEP TIME COMPLETED       1.000E+03,  TOTAL TIME COMPLETED        1.000E+03


          THE ANALYSIS HAS BEEN COMPLETED



     ANALYSIS SUMMARY:
     TOTAL OF        102  INCREMENTS
                       0  CUTBACKS IN AUTOMATIC INCREMENTATION
                     220  ITERATIONS INCLUDING CONTACT ITERATIONS IF PRESENT
                     220  PASSES THROUGH THE EQUATION SOLVER OF WHICH 
                     220  INVOLVE MATRIX DECOMPOSITION, INCLUDING
                       0  DECOMPOSITION(S) OF THE MASS MATRIX
                       1  REORDERING OF EQUATIONS TO MINIMIZE WAVEFRONT
                       0  ADDITIONAL RESIDUAL EVALUATIONS FOR LINE SEARCHES
                       0  ADDITIONAL OPERATOR EVALUATIONS FOR LINE SEARCHES
                       6  WARNING MESSAGES DURING USER INPUT PROCESSING
                       0  WARNING MESSAGES DURING ANALYSIS
                       0  ANALYSIS WARNINGS ARE NUMERICAL PROBLEM MESSAGES
                       0  ANALYSIS WARNINGS ARE NEGATIVE EIGENVALUE MESSAGES
                       0  ERROR MESSAGES



     JOB TIME SUMMARY
       USER TIME (SEC)      =     2.48E+03
       SYSTEM TIME (SEC)    =      43.    
       TOTAL CPU TIME (SEC) =     2.52E+03
       WALLCLOCK TIME (SEC) =         1269
       MEMORY PEAK (GB)     =            1
