*Heading
** Job name: Job-1 Model name: Model-1
** Generated by: Abaqus/CAE 2023.HF4
*Preprint, echo=NO, model=NO, history=NO, contact=NO
**
** PARTS
**
*Part, name=Part-1
*Node
      1,           0.,           0.
      2,           1.,           0.
      3,           2.,           0.
      4,           3.,           0.
      5,           4.,           0.
      6,           5.,           0.
      7,           6.,           0.
      8,           7.,           0.
      9,           8.,           0.
     10,           9.,           0.
     11,          10.,           0.
     12,          11.,           0.
     13,          12.,           0.
     14,          13.,           0.
     15,          14.,           0.
     16,          15.,           0.
     17,          16.,           0.
     18,          17.,           0.
     19,          18.,           0.
     20,          19.,           0.
** ... 82 like lines cut
*Element, type=CPE4HT
 1,   1,   2,  53,  52
 2,   2,   3,  54,  53
 3,   3,   4,  55,  54
 4,   4,   5,  56,  55
 5,   5,   6,  57,  56
 6,   6,   7,  58,  57
 7,   7,   8,  59,  58
 8,   8,   9,  60,  59
 9,   9,  10,  61,  60
10,  10,  11,  62,  61
11,  11,  12,  63,  62
12,  12,  13,  64,  63
13,  13,  14,  65,  64
14,  14,  15,  66,  65
15,  15,  16,  67,  66
16,  16,  17,  68,  67
17,  17,  18,  69,  68
18,  18,  19,  70,  69
19,  19,  20,  71,  70
20,  20,  21,  72,  71
** ... 30 like lines cut
*Nset, nset=Set-1, generate
   1,  102,    1
*Elset, elset=Set-1, generate
  1,  50,   1
** Section: Section-1
*Solid Section, elset=Set-1, material=Material-1
,
*End Part
**  
**
** ASSEMBLY
**
*Assembly, name=Assembly
**  
*Instance, name=Part-1-1, part=Part-1
*End Instance
**  
*Nset, nset=Set-1, instance=Part-1-1
  1, 52
*Elset, elset=Set-1, instance=Part-1-1
 1,
*Elset, elset=_Surf-1_S2, internal, instance=Part-1-1
 50,
*Surface, type=ELEMENT, name=Surf-1
_Surf-1_S2, S2
*End Assembly
** 
** MATERIALS
** 
*Material, name=Material-1
*Conductivity
 3.77e-05,
*Density
 82.9,
*Elastic
200000., 0.3
*Expansion
0.,
*Specific Heat
 0.39,
** ----------------------------------------------------------------
** 
** STEP: Step-1
** 
*Step, name=Step-1, nlgeom=NO, inc=1000000
*Coupled Temperature-displacement, creep=none
10000., 1e+06, 
** 
** BOUNDARY CONDITIONS
** 
** Name: BC-1 Type: Temperature
*Boundary
Set-1, 11, 11
** 
** LOADS
** 
** Name: Load-1   Type: Surface heat flux
*Dsflux
Surf-1, S, 100.
** 
** OUTPUT REQUESTS
** 
*Restart, write, frequency=0
** 
** FIELD OUTPUT: F-Output-1
** 
*Output, field, variable=PRESELECT
** 
** HISTORY OUTPUT: H-Output-1
** 
*Output, history, variable=PRESELECT
*End Step
