*Heading
 Workshop 3 ATOM
** Job name: hole-plate-quarter Model name: hole-plate-quarter
** Generated by: Abaqus/CAE 6.11-1
*Preprint, echo=NO, model=NO, history=NO, contact=NO
**
** PARTS
**
*Part, name=PART-1
*Node
      1,          50.,           0.
      2,          50.,          50.
      3,          50.,         12.5
      4,          50.,          25.
      5,          50.,         37.5
      6,   14.1421003,   14.1421003
      7,   20.2744999,   20.2744999
      8,      28.0007,      28.0007
      9,    37.735199,    37.735199
     10,          20.,           0.
     11,   16.6294003,   11.1113997
     12,   18.4776001,   7.65366983
     13,   19.6156998,   3.90180993
     14,      25.1306,           0.
     15,   31.5946007,           0.
     16,      39.7388,           0.
     17,   39.6072998,   9.55910015
     18,   31.3589001,   7.22490978
     19,   24.8120003,   5.37226009
     20,   39.2182007,   19.0669003
** ... 133 like lines cut
*Element, type=CPS4
 33,   1,  46,  50,  47
 34,  46,   3,  48,  50
 35,  47,  50,  49,  16
 36,  50,  48,  17,  49
 37,   3,  51,  55,  48
 38,  51,   4,  53,  55
 39,  48,  55,  54,  17
 40,  55,  53,  20,  54
 41,   4,  56,  60,  53
 42,  56,   5,  58,  60
 43,  53,  60,  59,  20
 44,  60,  58,  23,  59
 45,   5,  61,  65,  58
 46,  61,   2,  63,  65
 47,  58,  65,  64,  23
 48,  65,  63,   9,  64
 49,  16,  49,  70,  67
 50,  49,  17,  68,  70
 51,  67,  70,  69,  15
 52,  70,  68,  18,  69
** ... 108 like lines cut
*Elset, elset=P1, generate
  33,  160,    1
** Section: Section-1-P1
*Solid Section, elset=P1, material=MAT1
1.,
*End Part
**  
**
** ASSEMBLY
**
*Assembly, name=Assembly
**  
*Instance, name=PART-1-1, part=PART-1
*End Instance
**  
*Nset, nset=DESIGN_NODES, instance=PART-1-1
   6,  10,  11,  12,  13,  30,  34,  35,  36, 109, 114, 119, 124, 189, 194, 199
 204,
*Nset, nset=FORCE_1, instance=PART-1-1
  1,  2,  3,  4,  5, 46, 51, 56, 61
*Nset, nset=FORCE_3, instance=PART-1-1
   2,  26,  27,  28,  29, 126, 131, 136, 141
*Nset, nset=SPC1_4, instance=PART-1-1
  26,  30,  31,  32,  33, 143, 163, 183, 203
*Nset, nset=SPC1_6, instance=PART-1-1
   1,  10,  14,  15,  16,  47,  67,  87, 107
*Nset, nset=_PICKEDSET9, internal, instance=PART-1-1
   6,  10,  11,  12,  13,  30,  34,  35,  36, 109, 114, 119, 124, 189, 194, 199
 204,
*Elset, elset=_PICKEDSET10, internal, instance=PART-1-1, generate
  33,  160,    1
*Elset, elset=_PickedSet12, internal, instance=PART-1-1, generate
  33,  160,    1
*Elset, elset=_PickedSet13, internal, instance=PART-1-1, generate
  33,  160,    1
*End Assembly
** 
** MATERIALS
** 
**   mat1
** 
*Material, name=MAT1
*Elastic
210000., 0.3
** 
** BOUNDARY CONDITIONS
** 
** Name: Disp-BC-1 Type: Displacement/Rotation
*Boundary
SPC1_4, 1, 1
** Name: Disp-BC-2 Type: Displacement/Rotation
*Boundary
SPC1_6, 2, 2
** ----------------------------------------------------------------
** 
** STEP: Step-1
** 
*Step, name=Step-1, nlgeom=YES
*Static
1., 1., 1e-05, 1.
** 
** LOADS
** 
** Name: CFORCE-1   Type: Concentrated force
*Cload
FORCE_1, 1, 200.
** 
** OUTPUT REQUESTS
** 
*Restart, write, frequency=0
** 
** FIELD OUTPUT: F-Output-1
** 
*Output, field, variable=PRESELECT
** 
** HISTORY OUTPUT: H-Output-1
** 
*Output, history, variable=PRESELECT
*End Step
** ----------------------------------------------------------------
** 
** STEP: Step-2
** 
*Step, name=Step-2, nlgeom=YES
*Static
1., 1., 1e-05, 1.
** 
** LOADS
** 
** Name: CFORCE-1   Type: Concentrated force
*Cload, op=NEW
** Name: CFORCE-2   Type: Concentrated force
*Cload, op=NEW
FORCE_3, 2, 100.
** 
** OUTPUT REQUESTS
** 
*Restart, write, frequency=0
** 
** FIELD OUTPUT: F-Output-2
** 
*Output, field, variable=PRESELECT
** 
** HISTORY OUTPUT: H-Output-2
** 
*Output, history, variable=PRESELECT
*End Step
