1

   Abaqus 2023.HF4                                  Date 21-May-2024   Time 14:58:30
   For use by AALTO UNIVERSITY under license from Dassault Systemes or its subsidiary.

                                                                                 
                                                                                 
 STEP    1     INCREMENT     1     STEP TIME    0.00    


                        S T E P       1     C O U P L E D - T E M P E R A T U R E - D I S P L A C E M E N T   A N A L Y S I S


                                                                                          

          FIXED TIME INCREMENTS
          TIME INCREMENT IS                                    1.000E+03
          TIME PERIOD IS                                       1.000E+05

          CREEP AND SWELLING EFFECTS ARE OMITTED IN THIS STEP
          THE RATE DEPENDENCY WILL BE CONSIDERED IN THIS STEP

          CREEP AND SWELLING EFFECTS WILL BE IGNORED.

 CONVERGENCE TOLERANCE PARAMETERS FOR FORCE    
     CRITERION FOR RESIDUAL FORCE     FOR A NONLINEAR PROBLEM          5.000E-03
     CRITERION FOR DISP.    CORRECTION IN A NONLINEAR PROBLEM          1.000E-02
     INITIAL VALUE OF TIME AVERAGE FORCE                               1.000E-02
     AVERAGE FORCE     IS TIME AVERAGE FORCE    
     ALTERNATE CRIT. FOR RESIDUAL FORCE     FOR A NONLINEAR PROBLEM    2.000E-02
     CRITERION FOR ZERO FORCE     RELATIVE TO TIME AVRG. FORCE         1.000E-05
     CRITERION FOR RESIDUAL FORCE     WHEN THERE IS ZERO FLUX          1.000E-05
     CRITERION FOR DISP.    CORRECTION WHEN THERE IS ZERO FLUX         1.000E-03
     CRITERION FOR RESIDUAL FORCE     FOR A LINEAR INCREMENT           1.000E-08
     FIELD CONVERSION RATIO                                             1.00    
     CRITERION FOR ZERO FORCE     REL. TO TIME AVRG. MAX. FORCE        1.000E-05
     CRITERION FOR ZERO DISP.    RELATIVE TO CHARACTERISTIC LENGTH     1.000E-08

 CONVERGENCE TOLERANCE PARAMETERS FOR HEAT FLUX
     CRITERION FOR RESIDUAL HEAT FLUX FOR A NONLINEAR PROBLEM          5.000E-03
     CRITERION FOR TEMP.    CORRECTION IN A NONLINEAR PROBLEM          1.000E-02
     INITIAL VALUE OF TIME AVERAGE HEAT FLUX                           1.000E-02
     AVERAGE HEAT FLUX IS TIME AVERAGE HEAT FLUX
     ALTERNATE CRIT. FOR RESIDUAL HEAT FLUX FOR A NONLINEAR PROBLEM    2.000E-02
     CRITERION FOR ZERO HEAT FLUX RELATIVE TO TIME AVRG. HEAT FLUX     1.000E-05
     CRITERION FOR RESIDUAL HEAT FLUX WHEN THERE IS ZERO FLUX          1.000E-05
     CRITERION FOR TEMP.    CORRECTION WHEN THERE IS ZERO FLUX         1.000E-03
     CRITERION FOR RESIDUAL HEAT FLUX FOR A LINEAR INCREMENT           1.000E-08
     FIELD CONVERSION RATIO                                             1.00    
     CRITERION FOR ZERO HEAT FLUX REL. TO TIME AVRG. MAX. HEAT FLUX    1.000E-05

     VOLUMETRIC STRAIN COMPATIBILITY TOLERANCE FOR HYBRID SOLIDS       1.000E-05
     AXIAL STRAIN COMPATIBILITY TOLERANCE FOR HYBRID BEAMS             1.000E-05
     TRANS. SHEAR STRAIN COMPATIBILITY TOLERANCE FOR HYBRID BEAMS      1.000E-05
     SOFT CONTACT CONSTRAINT COMPATIBILITY TOLERANCE FOR P>P0          5.000E-03
     SOFT CONTACT CONSTRAINT COMPATIBILITY TOLERANCE FOR P=0.0         0.100    
     CONTACT FORCE ERROR TOLERANCE FOR CONVERT SDI=YES                 1.00    
     DISPLACEMENT COMPATIBILITY TOLERANCE FOR DCOUP ELEMENTS           1.000E-05
     ROTATION COMPATIBILITY TOLERANCE FOR DCOUP ELEMENTS               1.000E-05

 EQUILIBRIUM WILL BE CHECKED FOR SEVERE DISCONTINUITY ITERATIONS

 ITERATION CONTROL PARAMETERS:
     FIRST EQUILIBRIUM ITERATION FOR CONSECUTIVE DIVERGENCE CHECK              4
     EQUILIBRIUM ITERATION AFTER WHICH ALTERNATE RESIDUAL IS USED              9
     MAXIMUM EQUILIBRIUM ITERATIONS ALLOWED                                   16
     MAXIMUM ITERATIONS FOR SEVERE DISCONTINUITIES                            12
     GLOBAL STABILIZATION CONTROL IS NOT USED

          PRINT OF INCREMENT NUMBER, TIME, ETC., EVERY    1  INCREMENTS

     THE MAXIMUM NUMBER OF INCREMENTS IN THIS STEP IS                    1000

          LARGE DISPLACEMENT THEORY WILL BE USED

          UNSYMMETRIC MATRIX STORAGE AND SOLUTION WILL BE USED

     LINEAR EXTRAPOLATION WILL BE USED

     CHARACTERISTIC ELEMENT LENGTH     8.389E-04

     DETAILS REGARDING ACTUAL SOLUTION WAVEFRONT REQUESTED

     DETAILED OUTPUT OF DIAGNOSTICS TO DATABASE REQUESTED

     PRINT OF INCREMENT NUMBER, TIME, ETC., TO THE MESSAGE FILE EVERY     1  INCREMENTS

     ELEMENT OPERATIONS WILL BE CARRIED OUT IN PARALLEL USING   4 THREADS ON 1 DOMAIN

     PARALLEL CONTACT TRACKING ENABLED


     COLLECTING MODEL CONSTRAINT INFORMATION FOR OVERCONSTRAINT CHECKS

     COLLECTING STEP CONSTRAINT INFORMATION FOR OVERCONSTRAINT CHECKS


  INCREMENT     1 STARTS. ATTEMPT NUMBER  1, TIME INCREMENT  1.000E+03
 
     INITIAL ELEMENT LOAD BALANCE
            DOMAIN    1     THREAD    NUMBER OF ELEMENTS
                              1            1200
                              2            1272
                              3            832
                              4            1193
 
	UNSYMMETRIC NEW DIRECT SPARSE SOLVER RUNNING ON
 	1 HOST x 1 MPI RANK PER HOST x 4 THREADS PER RANK
        NUMBER OF EQUATIONS:  45663
        NUMBER OF RHS:        1
        NUMBER OF FLOPS:      7.282e+09
        SOLVER ELAPSED TIME:  100ms

               CONVERGENCE CHECKS FOR EQUILIBRIUM ITERATION     1


 AVERAGE FORCE                      1.686E+03   TIME AVG. FORCE       1.686E+03
 LARGEST SCALED RESIDUAL FORCE      -279.       AT NODE      12304   DOF  1
   INSTANCE: ELASTIC-PLASTIC-PLATE-1                                                         
  CORRESPONDING RESIDUAL FORCE      -279.    
 LARGEST INCREMENT OF DISP.         6.053E-06   AT NODE      11703   DOF  2
   INSTANCE: ELASTIC-PLASTIC-PLATE-1                                                         
 LARGEST CORRECTION TO DISP.        6.053E-06   AT NODE      11703   DOF  2
   INSTANCE: ELASTIC-PLASTIC-PLATE-1                                                         
          FORCE     EQUILIBRIUM NOT ACHIEVED WITHIN TOLERANCE.

 AVERAGE HEAT FLUX                  2.227E-19   TIME AVG. HEAT FLUX   1.000E-02
 LARGEST RESIDUAL HEAT FLUX        -2.619E-15   AT NODE          6   DOF 11
   INSTANCE: ELASTIC-PLASTIC-PLATE-1                                                         
 LARGEST INCREMENT OF TEMP.        -6.915E-16   AT NODE       4631   DOF 11
   INSTANCE: ELASTIC-PLASTIC-PLATE-1                                                         
 LARGEST CORRECTION TO TEMP.       -6.915E-16   AT NODE       4631   DOF 11
   INSTANCE: ELASTIC-PLASTIC-PLATE-1                                                         
          THERE IS ZERO HEAT FLUX EVERYWHERE
 

 ***WARNING: THERE IS ZERO HEAT FLUX EVERYWHERE IN THE MODEL BASED ON THE 
             DEFAULT CRITERION. PLEASE CHECK THE VALUE OF THE AVERAGE HEAT FLUX 
             DURING THE CURRENT ITERATION TO VERIFY THAT THE HEAT FLUX IS SMALL 
             ENOUGH TO BE TREATED AS ZERO. IF NOT, PLEASE USE THE SOLUTION 
             CONTROLS TO RESET THE CRITERION FOR ZERO HEAT FLUX.

 COMPATIBILITY ERRORS:
    TYPE                NUMBER EXCEEDING TOLERANCE  MAXIMUM ERROR        IN ELEMENT
 VOLUMETRIC                          0               -1.129E-07               3306
   INSTANCE: ELASTIC-PLASTIC-PLATE-1                                                         
 
	UNSYMMETRIC NEW DIRECT SPARSE SOLVER RUNNING ON
 	1 HOST x 1 MPI RANK PER HOST x 4 THREADS PER RANK
        NUMBER OF EQUATIONS:  45663
        NUMBER OF RHS:        1
        NUMBER OF FLOPS:      1.926e+09
        SOLVER ELAPSED TIME:  41ms

               CONVERGENCE CHECKS FOR EQUILIBRIUM ITERATION     2


 AVERAGE FORCE                      1.686E+03   TIME AVG. FORCE       1.686E+03
 LARGEST SCALED RESIDUAL FORCE     -0.963       AT NODE      12304   DOF  1
   INSTANCE: ELASTIC-PLASTIC-PLATE-1                                                         
  CORRESPONDING RESIDUAL FORCE     -0.963    
 LARGEST INCREMENT OF DISP.         6.053E-06   AT NODE      11703   DOF  2
   INSTANCE: ELASTIC-PLASTIC-PLATE-1                                                         
 LARGEST CORRECTION TO DISP.        1.579E-09   AT NODE      12303   DOF  2
   INSTANCE: ELASTIC-PLASTIC-PLATE-1                                                         
          THE FORCE     EQUILIBRIUM EQUATIONS HAVE CONVERGED

 AVERAGE HEAT FLUX                  1.726E-19   TIME AVG. HEAT FLUX   1.000E-02
 LARGEST RESIDUAL HEAT FLUX        -1.359E-15   AT NODE          6   DOF 11
   INSTANCE: ELASTIC-PLASTIC-PLATE-1                                                         
 LARGEST INCREMENT OF TEMP.        -3.725E-05   AT NODE          6   DOF 11
   INSTANCE: ELASTIC-PLASTIC-PLATE-1                                                         
 LARGEST CORRECTION TO TEMP.       -3.725E-05   AT NODE          6   DOF 11
   INSTANCE: ELASTIC-PLASTIC-PLATE-1                                                         
          THERE IS ZERO HEAT FLUX EVERYWHERE
 

 ***WARNING: THERE IS ZERO HEAT FLUX EVERYWHERE IN THE MODEL BASED ON THE 
             DEFAULT CRITERION. PLEASE CHECK THE VALUE OF THE AVERAGE HEAT FLUX 
             DURING THE CURRENT ITERATION TO VERIFY THAT THE HEAT FLUX IS SMALL 
             ENOUGH TO BE TREATED AS ZERO. IF NOT, PLEASE USE THE SOLUTION 
             CONTROLS TO RESET THE CRITERION FOR ZERO HEAT FLUX.

 COMPATIBILITY ERRORS:
    TYPE                NUMBER EXCEEDING TOLERANCE  MAXIMUM ERROR        IN ELEMENT
 VOLUMETRIC                          0                6.932E-12               3306
   INSTANCE: ELASTIC-PLASTIC-PLATE-1                                                         

 ITERATION SUMMARY FOR THE INCREMENT:   2 TOTAL ITERATIONS, OF WHICH
   0 ARE SEVERE DISCONTINUITY ITERATIONS AND  2 ARE EQUILIBRIUM ITERATIONS.

 TIME INCREMENT COMPLETED  1.000E+03,  FRACTION OF STEP COMPLETED  1.000E-02
 STEP TIME COMPLETED       1.000E+03,  TOTAL TIME COMPLETED        1.000E+03


  INCREMENT     2 STARTS. ATTEMPT NUMBER  1, TIME INCREMENT  1.000E+03
 
	UNSYMMETRIC NEW DIRECT SPARSE SOLVER RUNNING ON
 	1 HOST x 1 MPI RANK PER HOST x 4 THREADS PER RANK
        NUMBER OF EQUATIONS:  45663
        NUMBER OF RHS:        1
        NUMBER OF FLOPS:      1.900e+09
        SOLVER ELAPSED TIME:  39ms

               CONVERGENCE CHECKS FOR EQUILIBRIUM ITERATION     1


 AVERAGE FORCE                      4.021E+03   TIME AVG. FORCE       2.853E+03
 LARGEST SCALED RESIDUAL FORCE     -1.909E+03   AT NODE      11798   DOF  1
   INSTANCE: ELASTIC-PLASTIC-PLATE-1                                                         
  CORRESPONDING RESIDUAL FORCE     -1.909E+03
 LARGEST INCREMENT OF DISP.         6.055E-06   AT NODE      11703   DOF  2
   INSTANCE: ELASTIC-PLASTIC-PLATE-1                                                         
 LARGEST CORRECTION TO DISP.        2.476E-07   AT NODE        262   DOF  2
   INSTANCE: ELASTIC-PLASTIC-PLATE-1                                                         
          FORCE     EQUILIBRIUM NOT ACHIEVED WITHIN TOLERANCE.

 AVERAGE HEAT FLUX                  2.085E-13   TIME AVG. HEAT FLUX   1.000E-02
 LARGEST RESIDUAL HEAT FLUX         9.587E-12   AT NODE        263   DOF 11
   INSTANCE: ELASTIC-PLASTIC-PLATE-1                                                         
 LARGEST INCREMENT OF TEMP.         7.773E-02   AT NODE          6   DOF 11
   INSTANCE: ELASTIC-PLASTIC-PLATE-1                                                         
 LARGEST CORRECTION TO TEMP.        7.777E-02   AT NODE          6   DOF 11
   INSTANCE: ELASTIC-PLASTIC-PLATE-1                                                         
          THERE IS ZERO HEAT FLUX EVERYWHERE
 

 ***WARNING: THERE IS ZERO HEAT FLUX EVERYWHERE IN THE MODEL BASED ON THE 
             DEFAULT CRITERION. PLEASE CHECK THE VALUE OF THE AVERAGE HEAT FLUX 
             DURING THE CURRENT ITERATION TO VERIFY THAT THE HEAT FLUX IS SMALL 
             ENOUGH TO BE TREATED AS ZERO. IF NOT, PLEASE USE THE SOLUTION 
             CONTROLS TO RESET THE CRITERION FOR ZERO HEAT FLUX.

 COMPATIBILITY ERRORS:
    TYPE                NUMBER EXCEEDING TOLERANCE  MAXIMUM ERROR        IN ELEMENT
 VOLUMETRIC                          0               -8.697E-08               3306
   INSTANCE: ELASTIC-PLASTIC-PLATE-1                                                         
 
	UNSYMMETRIC NEW DIRECT SPARSE SOLVER RUNNING ON
 	1 HOST x 1 MPI RANK PER HOST x 4 THREADS PER RANK
        NUMBER OF EQUATIONS:  45663
        NUMBER OF RHS:        1
        NUMBER OF FLOPS:      1.900e+09
        SOLVER ELAPSED TIME:  44ms

               CONVERGENCE CHECKS FOR EQUILIBRIUM ITERATION     2


 AVERAGE FORCE                      4.020E+03   TIME AVG. FORCE       2.853E+03
 LARGEST SCALED RESIDUAL FORCE       223.       AT NODE      11798   DOF  2
   INSTANCE: ELASTIC-PLASTIC-PLATE-1                                                         
  CORRESPONDING RESIDUAL FORCE       223.    
 LARGEST INCREMENT OF DISP.         6.055E-06   AT NODE      11703   DOF  2
   INSTANCE: ELASTIC-PLASTIC-PLATE-1                                                         
 LARGEST CORRECTION TO DISP.        4.798E-08   AT NODE          6   DOF  1
   INSTANCE: ELASTIC-PLASTIC-PLATE-1                                                         
          FORCE     EQUILIBRIUM NOT ACHIEVED WITHIN TOLERANCE.

 AVERAGE HEAT FLUX                  2.114E-13   TIME AVG. HEAT FLUX   1.000E-02
 LARGEST RESIDUAL HEAT FLUX        -3.069E-11   AT NODE        263   DOF 11
   INSTANCE: ELASTIC-PLASTIC-PLATE-1                                                         
 LARGEST INCREMENT OF TEMP.         0.143       AT NODE          6   DOF 11
   INSTANCE: ELASTIC-PLASTIC-PLATE-1                                                         
 LARGEST CORRECTION TO TEMP.        6.576E-02   AT NODE          6   DOF 11
   INSTANCE: ELASTIC-PLASTIC-PLATE-1                                                         
          THERE IS ZERO HEAT FLUX EVERYWHERE
 

 ***WARNING: THERE IS ZERO HEAT FLUX EVERYWHERE IN THE MODEL BASED ON THE 
             DEFAULT CRITERION. PLEASE CHECK THE VALUE OF THE AVERAGE HEAT FLUX 
             DURING THE CURRENT ITERATION TO VERIFY THAT THE HEAT FLUX IS SMALL 
             ENOUGH TO BE TREATED AS ZERO. IF NOT, PLEASE USE THE SOLUTION 
             CONTROLS TO RESET THE CRITERION FOR ZERO HEAT FLUX.

 COMPATIBILITY ERRORS:
    TYPE                NUMBER EXCEEDING TOLERANCE  MAXIMUM ERROR        IN ELEMENT
 VOLUMETRIC                          0               -1.326E-09               3306
   INSTANCE: ELASTIC-PLASTIC-PLATE-1                                                         
 
	UNSYMMETRIC NEW DIRECT SPARSE SOLVER RUNNING ON
 	1 HOST x 1 MPI RANK PER HOST x 4 THREADS PER RANK
        NUMBER OF EQUATIONS:  45663
        NUMBER OF RHS:        1
        NUMBER OF FLOPS:      1.900e+09
        SOLVER ELAPSED TIME:  44ms

               CONVERGENCE CHECKS FOR EQUILIBRIUM ITERATION     3


 AVERAGE FORCE                      4.021E+03   TIME AVG. FORCE       2.853E+03
 LARGEST SCALED RESIDUAL FORCE     -0.454       AT NODE      11800   DOF  1
   INSTANCE: ELASTIC-PLASTIC-PLATE-1                                                         
  CORRESPONDING RESIDUAL FORCE     -0.454    
 LARGEST INCREMENT OF DISP.         6.055E-06   AT NODE      11703   DOF  2
   INSTANCE: ELASTIC-PLASTIC-PLATE-1                                                         
 LARGEST CORRECTION TO DISP.        2.532E-09   AT NODE        264   DOF  1
   INSTANCE: ELASTIC-PLASTIC-PLATE-1                                                         
          THE FORCE     EQUILIBRIUM EQUATIONS HAVE CONVERGED

 AVERAGE HEAT FLUX                  2.068E-13   TIME AVG. HEAT FLUX   1.000E-02
 LARGEST RESIDUAL HEAT FLUX        -6.763E-12   AT NODE       2777   DOF 11
   INSTANCE: ELASTIC-PLASTIC-PLATE-1                                                         
 LARGEST INCREMENT OF TEMP.        -9.804E-02   AT NODE          6   DOF 11
   INSTANCE: ELASTIC-PLASTIC-PLATE-1                                                         
 LARGEST CORRECTION TO TEMP.       -0.242       AT NODE          6   DOF 11
   INSTANCE: ELASTIC-PLASTIC-PLATE-1                                                         
          THERE IS ZERO HEAT FLUX EVERYWHERE
 

 ***WARNING: THERE IS ZERO HEAT FLUX EVERYWHERE IN THE MODEL BASED ON THE 
             DEFAULT CRITERION. PLEASE CHECK THE VALUE OF THE AVERAGE HEAT FLUX 
             DURING THE CURRENT ITERATION TO VERIFY THAT THE HEAT FLUX IS SMALL 
             ENOUGH TO BE TREATED AS ZERO. IF NOT, PLEASE USE THE SOLUTION 
             CONTROLS TO RESET THE CRITERION FOR ZERO HEAT FLUX.

 COMPATIBILITY ERRORS:
    TYPE                NUMBER EXCEEDING TOLERANCE  MAXIMUM ERROR        IN ELEMENT
 VOLUMETRIC                          0               -7.101E-12               2989
   INSTANCE: ELASTIC-PLASTIC-PLATE-1                                                         

 ITERATION SUMMARY FOR THE INCREMENT:   3 TOTAL ITERATIONS, OF WHICH
   0 ARE SEVERE DISCONTINUITY ITERATIONS AND  3 ARE EQUILIBRIUM ITERATIONS.

 TIME INCREMENT COMPLETED  1.000E+03,  FRACTION OF STEP COMPLETED  2.000E-02
 STEP TIME COMPLETED       2.000E+03,  TOTAL TIME COMPLETED        2.000E+03


  INCREMENT     3 STARTS. ATTEMPT NUMBER  1, TIME INCREMENT  1.000E+03
 
	UNSYMMETRIC NEW DIRECT SPARSE SOLVER RUNNING ON
 	1 HOST x 1 MPI RANK PER HOST x 4 THREADS PER RANK
        NUMBER OF EQUATIONS:  45663
        NUMBER OF RHS:        1
        NUMBER OF FLOPS:      1.898e+09
        SOLVER ELAPSED TIME:  38ms

               CONVERGENCE CHECKS FOR EQUILIBRIUM ITERATION     1


 AVERAGE FORCE                      5.992E+03   TIME AVG. FORCE       3.900E+03
 LARGEST SCALED RESIDUAL FORCE      3.515E+03   AT NODE      11712   DOF  1
   INSTANCE: ELASTIC-PLASTIC-PLATE-1                                                         
  CORRESPONDING RESIDUAL FORCE      3.515E+03
 LARGEST INCREMENT OF DISP.         6.066E-06   AT NODE      11703   DOF  2
   INSTANCE: ELASTIC-PLASTIC-PLATE-1                                                         
 LARGEST CORRECTION TO DISP.        5.543E-07   AT NODE          6   DOF  1
   INSTANCE: ELASTIC-PLASTIC-PLATE-1                                                         
          FORCE     EQUILIBRIUM NOT ACHIEVED WITHIN TOLERANCE.

 AVERAGE HEAT FLUX                  3.145E-13   TIME AVG. HEAT FLUX   1.000E-02
 LARGEST RESIDUAL HEAT FLUX        -2.411E-11   AT NODE        263   DOF 11
   INSTANCE: ELASTIC-PLASTIC-PLATE-1                                                         
 LARGEST INCREMENT OF TEMP.        -6.812E-02   AT NODE          6   DOF 11
   INSTANCE: ELASTIC-PLASTIC-PLATE-1                                                         
 LARGEST CORRECTION TO TEMP.       -5.412E-02   AT NODE       2777   DOF 11
   INSTANCE: ELASTIC-PLASTIC-PLATE-1                                                         
          THERE IS ZERO HEAT FLUX EVERYWHERE
 

 ***WARNING: THERE IS ZERO HEAT FLUX EVERYWHERE IN THE MODEL BASED ON THE 
             DEFAULT CRITERION. PLEASE CHECK THE VALUE OF THE AVERAGE HEAT FLUX 
             DURING THE CURRENT ITERATION TO VERIFY THAT THE HEAT FLUX IS SMALL 
             ENOUGH TO BE TREATED AS ZERO. IF NOT, PLEASE USE THE SOLUTION 
             CONTROLS TO RESET THE CRITERION FOR ZERO HEAT FLUX.

 COMPATIBILITY ERRORS:
    TYPE                NUMBER EXCEEDING TOLERANCE  MAXIMUM ERROR        IN ELEMENT
 VOLUMETRIC                          0               -5.855E-08               3057
   INSTANCE: ELASTIC-PLASTIC-PLATE-1                                                         
 
	UNSYMMETRIC NEW DIRECT SPARSE SOLVER RUNNING ON
 	1 HOST x 1 MPI RANK PER HOST x 4 THREADS PER RANK
        NUMBER OF EQUATIONS:  45663
        NUMBER OF RHS:        1
        NUMBER OF FLOPS:      1.898e+09
        SOLVER ELAPSED TIME:  38ms

               CONVERGENCE CHECKS FOR EQUILIBRIUM ITERATION     2


 AVERAGE FORCE                      5.990E+03   TIME AVG. FORCE       3.899E+03
 LARGEST SCALED RESIDUAL FORCE      -138.       AT NODE      10359   DOF  1
   INSTANCE: ELASTIC-PLASTIC-PLATE-1                                                         
  CORRESPONDING RESIDUAL FORCE      -138.    
 LARGEST INCREMENT OF DISP.         6.067E-06   AT NODE      11703   DOF  2
   INSTANCE: ELASTIC-PLASTIC-PLATE-1                                                         
 LARGEST CORRECTION TO DISP.        7.794E-08   AT NODE        263   DOF  1
   INSTANCE: ELASTIC-PLASTIC-PLATE-1                                                         
          FORCE     EQUILIBRIUM NOT ACHIEVED WITHIN TOLERANCE.

 AVERAGE HEAT FLUX                  3.114E-13   TIME AVG. HEAT FLUX   1.000E-02
 LARGEST RESIDUAL HEAT FLUX        -2.280E-11   AT NODE       2777   DOF 11
   INSTANCE: ELASTIC-PLASTIC-PLATE-1                                                         
 LARGEST INCREMENT OF TEMP.        -0.220       AT NODE          6   DOF 11
   INSTANCE: ELASTIC-PLASTIC-PLATE-1                                                         
 LARGEST CORRECTION TO TEMP.       -0.152       AT NODE          6   DOF 11
   INSTANCE: ELASTIC-PLASTIC-PLATE-1                                                         
          THERE IS ZERO HEAT FLUX EVERYWHERE
 

 ***WARNING: THERE IS ZERO HEAT FLUX EVERYWHERE IN THE MODEL BASED ON THE 
             DEFAULT CRITERION. PLEASE CHECK THE VALUE OF THE AVERAGE HEAT FLUX 
             DURING THE CURRENT ITERATION TO VERIFY THAT THE HEAT FLUX IS SMALL 
             ENOUGH TO BE TREATED AS ZERO. IF NOT, PLEASE USE THE SOLUTION 
             CONTROLS TO RESET THE CRITERION FOR ZERO HEAT FLUX.

 COMPATIBILITY ERRORS:
    TYPE                NUMBER EXCEEDING TOLERANCE  MAXIMUM ERROR        IN ELEMENT
 VOLUMETRIC                          0               -1.312E-09               2988
   INSTANCE: ELASTIC-PLASTIC-PLATE-1                                                         
 
	UNSYMMETRIC NEW DIRECT SPARSE SOLVER RUNNING ON
 	1 HOST x 1 MPI RANK PER HOST x 4 THREADS PER RANK
        NUMBER OF EQUATIONS:  45663
        NUMBER OF RHS:        1
        NUMBER OF FLOPS:      1.898e+09
        SOLVER ELAPSED TIME:  41ms

               CONVERGENCE CHECKS FOR EQUILIBRIUM ITERATION     3


 AVERAGE FORCE                      5.991E+03   TIME AVG. FORCE       3.899E+03
 LARGEST SCALED RESIDUAL FORCE     -0.194       AT NODE      11878   DOF  1
   INSTANCE: ELASTIC-PLASTIC-PLATE-1                                                         
  CORRESPONDING RESIDUAL FORCE     -0.194    
 LARGEST INCREMENT OF DISP.         6.067E-06   AT NODE      11703   DOF  2
   INSTANCE: ELASTIC-PLASTIC-PLATE-1                                                         
 LARGEST CORRECTION TO DISP.        1.968E-09   AT NODE        265   DOF  1
   INSTANCE: ELASTIC-PLASTIC-PLATE-1                                                         
          THE FORCE     EQUILIBRIUM EQUATIONS HAVE CONVERGED

 AVERAGE HEAT FLUX                  3.068E-13   TIME AVG. HEAT FLUX   1.000E-02
 LARGEST RESIDUAL HEAT FLUX         6.210E-12   AT NODE       2775   DOF 11
   INSTANCE: ELASTIC-PLASTIC-PLATE-1                                                         
 LARGEST INCREMENT OF TEMP.        -0.100       AT NODE          6   DOF 11
   INSTANCE: ELASTIC-PLASTIC-PLATE-1                                                         
 LARGEST CORRECTION TO TEMP.        0.120       AT NODE          6   DOF 11
   INSTANCE: ELASTIC-PLASTIC-PLATE-1                                                         
          THERE IS ZERO HEAT FLUX EVERYWHERE
 

 ***WARNING: THERE IS ZERO HEAT FLUX EVERYWHERE IN THE MODEL BASED ON THE 
             DEFAULT CRITERION. PLEASE CHECK THE VALUE OF THE AVERAGE HEAT FLUX 
             DURING THE CURRENT ITERATION TO VERIFY THAT THE HEAT FLUX IS SMALL 
             ENOUGH TO BE TREATED AS ZERO. IF NOT, PLEASE USE THE SOLUTION 
             CONTROLS TO RESET THE CRITERION FOR ZERO HEAT FLUX.

 COMPATIBILITY ERRORS:
    TYPE                NUMBER EXCEEDING TOLERANCE  MAXIMUM ERROR        IN ELEMENT
 VOLUMETRIC                          0               -2.155E-12               2494
   INSTANCE: ELASTIC-PLASTIC-PLATE-1                                                         

 ITERATION SUMMARY FOR THE INCREMENT:   3 TOTAL ITERATIONS, OF WHICH
   0 ARE SEVERE DISCONTINUITY ITERATIONS AND  3 ARE EQUILIBRIUM ITERATIONS.

 TIME INCREMENT COMPLETED  1.000E+03,  FRACTION OF STEP COMPLETED  3.000E-02
 STEP TIME COMPLETED       3.000E+03,  TOTAL TIME COMPLETED        3.000E+03


  INCREMENT     4 STARTS. ATTEMPT NUMBER  1, TIME INCREMENT  1.000E+03
 
	UNSYMMETRIC NEW DIRECT SPARSE SOLVER RUNNING ON
 	1 HOST x 1 MPI RANK PER HOST x 4 THREADS PER RANK
        NUMBER OF EQUATIONS:  45663
        NUMBER OF RHS:        1
        NUMBER OF FLOPS:      1.901e+09
        SOLVER ELAPSED TIME:  39ms

               CONVERGENCE CHECKS FOR EQUILIBRIUM ITERATION     1


 AVERAGE FORCE                      7.905E+03   TIME AVG. FORCE       4.900E+03
 LARGEST SCALED RESIDUAL FORCE      1.850E+03   AT NODE      11518   DOF  2
   INSTANCE: ELASTIC-PLASTIC-PLATE-1                                                         
  CORRESPONDING RESIDUAL FORCE      1.850E+03
 LARGEST INCREMENT OF DISP.         6.071E-06   AT NODE      11703   DOF  2
   INSTANCE: ELASTIC-PLASTIC-PLATE-1                                                         
 LARGEST CORRECTION TO DISP.        5.582E-07   AT NODE          6   DOF  1
   INSTANCE: ELASTIC-PLASTIC-PLATE-1                                                         
          FORCE     EQUILIBRIUM NOT ACHIEVED WITHIN TOLERANCE.

 AVERAGE HEAT FLUX                  4.130E-13   TIME AVG. HEAT FLUX   1.000E-02
 LARGEST RESIDUAL HEAT FLUX        -7.534E-12   AT NODE        262   DOF 11
   INSTANCE: ELASTIC-PLASTIC-PLATE-1                                                         
 LARGEST INCREMENT OF TEMP.        -6.910E-02   AT NODE        263   DOF 11
   INSTANCE: ELASTIC-PLASTIC-PLATE-1                                                         
 LARGEST CORRECTION TO TEMP.        7.269E-02   AT NODE          6   DOF 11
   INSTANCE: ELASTIC-PLASTIC-PLATE-1                                                         
          THERE IS ZERO HEAT FLUX EVERYWHERE
 

 ***WARNING: THERE IS ZERO HEAT FLUX EVERYWHERE IN THE MODEL BASED ON THE 
             DEFAULT CRITERION. PLEASE CHECK THE VALUE OF THE AVERAGE HEAT FLUX 
             DURING THE CURRENT ITERATION TO VERIFY THAT THE HEAT FLUX IS SMALL 
             ENOUGH TO BE TREATED AS ZERO. IF NOT, PLEASE USE THE SOLUTION 
             CONTROLS TO RESET THE CRITERION FOR ZERO HEAT FLUX.

 COMPATIBILITY ERRORS:
    TYPE                NUMBER EXCEEDING TOLERANCE  MAXIMUM ERROR        IN ELEMENT
 VOLUMETRIC                          0               -3.653E-08               3058
   INSTANCE: ELASTIC-PLASTIC-PLATE-1                                                         
 
	UNSYMMETRIC NEW DIRECT SPARSE SOLVER RUNNING ON
 	1 HOST x 1 MPI RANK PER HOST x 4 THREADS PER RANK
        NUMBER OF EQUATIONS:  45663
        NUMBER OF RHS:        1
        NUMBER OF FLOPS:      1.902e+09
        SOLVER ELAPSED TIME:  42ms

               CONVERGENCE CHECKS FOR EQUILIBRIUM ITERATION     2


 AVERAGE FORCE                      7.903E+03   TIME AVG. FORCE       4.900E+03
 LARGEST SCALED RESIDUAL FORCE      -44.7       AT NODE      12076   DOF  2
   INSTANCE: ELASTIC-PLASTIC-PLATE-1                                                         
  CORRESPONDING RESIDUAL FORCE      -44.7    
 LARGEST INCREMENT OF DISP.         6.072E-06   AT NODE      11703   DOF  2
   INSTANCE: ELASTIC-PLASTIC-PLATE-1                                                         
 LARGEST CORRECTION TO DISP.        5.678E-08   AT NODE      10354   DOF  1
   INSTANCE: ELASTIC-PLASTIC-PLATE-1                                                         
          FORCE     EQUILIBRIUM NOT ACHIEVED WITHIN TOLERANCE.

 AVERAGE HEAT FLUX                  4.040E-13   TIME AVG. HEAT FLUX   1.000E-02
 LARGEST RESIDUAL HEAT FLUX         2.202E-11   AT NODE       2814   DOF 11
   INSTANCE: ELASTIC-PLASTIC-PLATE-1                                                         
 LARGEST INCREMENT OF TEMP.        -0.100       AT NODE        263   DOF 11
   INSTANCE: ELASTIC-PLASTIC-PLATE-1                                                         
 LARGEST CORRECTION TO TEMP.       -4.111E-02   AT NODE          6   DOF 11
   INSTANCE: ELASTIC-PLASTIC-PLATE-1                                                         
          THERE IS ZERO HEAT FLUX EVERYWHERE
 

 ***WARNING: THERE IS ZERO HEAT FLUX EVERYWHERE IN THE MODEL BASED ON THE 
             DEFAULT CRITERION. PLEASE CHECK THE VALUE OF THE AVERAGE HEAT FLUX 
             DURING THE CURRENT ITERATION TO VERIFY THAT THE HEAT FLUX IS SMALL 
             ENOUGH TO BE TREATED AS ZERO. IF NOT, PLEASE USE THE SOLUTION 
             CONTROLS TO RESET THE CRITERION FOR ZERO HEAT FLUX.

 COMPATIBILITY ERRORS:
    TYPE                NUMBER EXCEEDING TOLERANCE  MAXIMUM ERROR        IN ELEMENT
 VOLUMETRIC                          0                2.362E-10               2912
   INSTANCE: ELASTIC-PLASTIC-PLATE-1                                                         
 
	UNSYMMETRIC NEW DIRECT SPARSE SOLVER RUNNING ON
 	1 HOST x 1 MPI RANK PER HOST x 4 THREADS PER RANK
        NUMBER OF EQUATIONS:  45663
        NUMBER OF RHS:        1
        NUMBER OF FLOPS:      1.902e+09
        SOLVER ELAPSED TIME:  38ms

               CONVERGENCE CHECKS FOR EQUILIBRIUM ITERATION     3


 AVERAGE FORCE                      7.904E+03   TIME AVG. FORCE       4.900E+03
 LARGEST SCALED RESIDUAL FORCE     -3.508E-02   AT NODE      12076   DOF  1
   INSTANCE: ELASTIC-PLASTIC-PLATE-1                                                         
  CORRESPONDING RESIDUAL FORCE     -3.508E-02
 LARGEST INCREMENT OF DISP.         6.072E-06   AT NODE      11703   DOF  2
   INSTANCE: ELASTIC-PLASTIC-PLATE-1                                                         
 LARGEST CORRECTION TO DISP.        6.955E-10   AT NODE        260   DOF  1
   INSTANCE: ELASTIC-PLASTIC-PLATE-1                                                         
          THE FORCE     EQUILIBRIUM EQUATIONS HAVE CONVERGED

 AVERAGE HEAT FLUX                  4.011E-13   TIME AVG. HEAT FLUX   1.000E-02
 LARGEST RESIDUAL HEAT FLUX         4.449E-12   AT NODE       2692   DOF 11
   INSTANCE: ELASTIC-PLASTIC-PLATE-1                                                         
 LARGEST INCREMENT OF TEMP.        -8.550E-02   AT NODE        260   DOF 11
   INSTANCE: ELASTIC-PLASTIC-PLATE-1                                                         
 LARGEST CORRECTION TO TEMP.       -7.788E-02   AT NODE        260   DOF 11
   INSTANCE: ELASTIC-PLASTIC-PLATE-1                                                         
          THERE IS ZERO HEAT FLUX EVERYWHERE
 

 ***WARNING: THERE IS ZERO HEAT FLUX EVERYWHERE IN THE MODEL BASED ON THE 
             DEFAULT CRITERION. PLEASE CHECK THE VALUE OF THE AVERAGE HEAT FLUX 
             DURING THE CURRENT ITERATION TO VERIFY THAT THE HEAT FLUX IS SMALL 
             ENOUGH TO BE TREATED AS ZERO. IF NOT, PLEASE USE THE SOLUTION 
             CONTROLS TO RESET THE CRITERION FOR ZERO HEAT FLUX.

 COMPATIBILITY ERRORS:
    TYPE                NUMBER EXCEEDING TOLERANCE  MAXIMUM ERROR        IN ELEMENT
 VOLUMETRIC                          0                6.068E-13               2902
   INSTANCE: ELASTIC-PLASTIC-PLATE-1                                                         

 ITERATION SUMMARY FOR THE INCREMENT:   3 TOTAL ITERATIONS, OF WHICH
   0 ARE SEVERE DISCONTINUITY ITERATIONS AND  3 ARE EQUILIBRIUM ITERATIONS.

 TIME INCREMENT COMPLETED  1.000E+03,  FRACTION OF STEP COMPLETED  4.000E-02
 STEP TIME COMPLETED       4.000E+03,  TOTAL TIME COMPLETED        4.000E+03


  INCREMENT     5 STARTS. ATTEMPT NUMBER  1, TIME INCREMENT  1.000E+03
 
	UNSYMMETRIC NEW DIRECT SPARSE SOLVER RUNNING ON
 	1 HOST x 1 MPI RANK PER HOST x 4 THREADS PER RANK
        NUMBER OF EQUATIONS:  45663
        NUMBER OF RHS:        1
        NUMBER OF FLOPS:      1.952e+09
        SOLVER ELAPSED TIME:  38ms

               CONVERGENCE CHECKS FOR EQUILIBRIUM ITERATION     1


 AVERAGE FORCE                      9.500E+03   TIME AVG. FORCE       5.820E+03
 LARGEST SCALED RESIDUAL FORCE      4.985E+03   AT NODE      13693   DOF  2
   INSTANCE: ELASTIC-PLASTIC-PLATE-1                                                         
  CORRESPONDING RESIDUAL FORCE      4.985E+03
 LARGEST INCREMENT OF DISP.         6.000E-06   AT NODE          3   DOF  2
   INSTANCE: ELASTIC-PLASTIC-PLATE-1                                                         
 LARGEST CORRECTION TO DISP.        8.605E-07   AT NODE       9358   DOF  2
   INSTANCE: ELASTIC-PLASTIC-PLATE-1                                                         
          FORCE     EQUILIBRIUM NOT ACHIEVED WITHIN TOLERANCE.

 AVERAGE HEAT FLUX                  5.022E-13   TIME AVG. HEAT FLUX   1.000E-02
 LARGEST RESIDUAL HEAT FLUX         8.849E-12   AT NODE       2814   DOF 11
   INSTANCE: ELASTIC-PLASTIC-PLATE-1                                                         
 LARGEST INCREMENT OF TEMP.        -5.615E-02   AT NODE          6   DOF 11
   INSTANCE: ELASTIC-PLASTIC-PLATE-1                                                         
 LARGEST CORRECTION TO TEMP.        3.357E-02   AT NODE       3628   DOF 11
   INSTANCE: ELASTIC-PLASTIC-PLATE-1                                                         
          THERE IS ZERO HEAT FLUX EVERYWHERE
 

 ***WARNING: THERE IS ZERO HEAT FLUX EVERYWHERE IN THE MODEL BASED ON THE 
             DEFAULT CRITERION. PLEASE CHECK THE VALUE OF THE AVERAGE HEAT FLUX 
             DURING THE CURRENT ITERATION TO VERIFY THAT THE HEAT FLUX IS SMALL 
             ENOUGH TO BE TREATED AS ZERO. IF NOT, PLEASE USE THE SOLUTION 
             CONTROLS TO RESET THE CRITERION FOR ZERO HEAT FLUX.

 COMPATIBILITY ERRORS:
    TYPE                NUMBER EXCEEDING TOLERANCE  MAXIMUM ERROR        IN ELEMENT
 VOLUMETRIC                          0               -4.771E-08               3306
   INSTANCE: ELASTIC-PLASTIC-PLATE-1                                                         
 
	UNSYMMETRIC NEW DIRECT SPARSE SOLVER RUNNING ON
 	1 HOST x 1 MPI RANK PER HOST x 4 THREADS PER RANK
        NUMBER OF EQUATIONS:  45663
        NUMBER OF RHS:        1
        NUMBER OF FLOPS:      1.940e+09
        SOLVER ELAPSED TIME:  38ms

               CONVERGENCE CHECKS FOR EQUILIBRIUM ITERATION     2


 AVERAGE FORCE                      9.513E+03   TIME AVG. FORCE       5.823E+03
 LARGEST SCALED RESIDUAL FORCE      -573.       AT NODE      13597   DOF  2
   INSTANCE: ELASTIC-PLASTIC-PLATE-1                                                         
  CORRESPONDING RESIDUAL FORCE      -573.    
 LARGEST INCREMENT OF DISP.         6.000E-06   AT NODE          3   DOF  2
   INSTANCE: ELASTIC-PLASTIC-PLATE-1                                                         
 LARGEST CORRECTION TO DISP.       -1.418E-07   AT NODE         90   DOF  2
   INSTANCE: ELASTIC-PLASTIC-PLATE-1                                                         
          FORCE     EQUILIBRIUM NOT ACHIEVED WITHIN TOLERANCE.

 AVERAGE HEAT FLUX                  4.798E-13   TIME AVG. HEAT FLUX   1.000E-02
 LARGEST RESIDUAL HEAT FLUX        -1.412E-11   AT NODE       2814   DOF 11
   INSTANCE: ELASTIC-PLASTIC-PLATE-1                                                         
 LARGEST INCREMENT OF TEMP.        -8.078E-02   AT NODE          6   DOF 11
   INSTANCE: ELASTIC-PLASTIC-PLATE-1                                                         
 LARGEST CORRECTION TO TEMP.       -2.841E-02   AT NODE        263   DOF 11
   INSTANCE: ELASTIC-PLASTIC-PLATE-1                                                         
          THERE IS ZERO HEAT FLUX EVERYWHERE
 

 ***WARNING: THERE IS ZERO HEAT FLUX EVERYWHERE IN THE MODEL BASED ON THE 
             DEFAULT CRITERION. PLEASE CHECK THE VALUE OF THE AVERAGE HEAT FLUX 
             DURING THE CURRENT ITERATION TO VERIFY THAT THE HEAT FLUX IS SMALL 
             ENOUGH TO BE TREATED AS ZERO. IF NOT, PLEASE USE THE SOLUTION 
             CONTROLS TO RESET THE CRITERION FOR ZERO HEAT FLUX.

 COMPATIBILITY ERRORS:
    TYPE                NUMBER EXCEEDING TOLERANCE  MAXIMUM ERROR        IN ELEMENT
 VOLUMETRIC                          0               -3.804E-10               2100
   INSTANCE: ELASTIC-PLASTIC-PLATE-1                                                         
 
	UNSYMMETRIC NEW DIRECT SPARSE SOLVER RUNNING ON
 	1 HOST x 1 MPI RANK PER HOST x 4 THREADS PER RANK
        NUMBER OF EQUATIONS:  45663
        NUMBER OF RHS:        1
        NUMBER OF FLOPS:      1.941e+09
        SOLVER ELAPSED TIME:  41ms

               CONVERGENCE CHECKS FOR EQUILIBRIUM ITERATION     3


 AVERAGE FORCE                      9.513E+03   TIME AVG. FORCE       5.823E+03
 LARGEST SCALED RESIDUAL FORCE      -22.3       AT NODE      11068   DOF  2
   INSTANCE: ELASTIC-PLASTIC-PLATE-1                                                         
  CORRESPONDING RESIDUAL FORCE      -22.3    
 LARGEST INCREMENT OF DISP.         6.000E-06   AT NODE          3   DOF  2
   INSTANCE: ELASTIC-PLASTIC-PLATE-1                                                         
 LARGEST CORRECTION TO DISP.       -1.727E-09   AT NODE      13597   DOF  2
   INSTANCE: ELASTIC-PLASTIC-PLATE-1                                                         
          THE FORCE     EQUILIBRIUM EQUATIONS HAVE CONVERGED

 AVERAGE HEAT FLUX                  4.768E-13   TIME AVG. HEAT FLUX   1.000E-02
 LARGEST RESIDUAL HEAT FLUX         3.676E-12   AT NODE       3388   DOF 11
   INSTANCE: ELASTIC-PLASTIC-PLATE-1                                                         
 LARGEST INCREMENT OF TEMP.        -7.221E-02   AT NODE          6   DOF 11
   INSTANCE: ELASTIC-PLASTIC-PLATE-1                                                         
 LARGEST CORRECTION TO TEMP.       -5.859E-02   AT NODE        259   DOF 11
   INSTANCE: ELASTIC-PLASTIC-PLATE-1                                                         
          THERE IS ZERO HEAT FLUX EVERYWHERE
 

 ***WARNING: THERE IS ZERO HEAT FLUX EVERYWHERE IN THE MODEL BASED ON THE 
             DEFAULT CRITERION. PLEASE CHECK THE VALUE OF THE AVERAGE HEAT FLUX 
             DURING THE CURRENT ITERATION TO VERIFY THAT THE HEAT FLUX IS SMALL 
             ENOUGH TO BE TREATED AS ZERO. IF NOT, PLEASE USE THE SOLUTION 
             CONTROLS TO RESET THE CRITERION FOR ZERO HEAT FLUX.

 COMPATIBILITY ERRORS:
    TYPE                NUMBER EXCEEDING TOLERANCE  MAXIMUM ERROR        IN ELEMENT
 VOLUMETRIC                          0                7.733E-12               2902
   INSTANCE: ELASTIC-PLASTIC-PLATE-1                                                         

 ITERATION SUMMARY FOR THE INCREMENT:   3 TOTAL ITERATIONS, OF WHICH
   0 ARE SEVERE DISCONTINUITY ITERATIONS AND  3 ARE EQUILIBRIUM ITERATIONS.

 TIME INCREMENT COMPLETED  1.000E+03,  FRACTION OF STEP COMPLETED  5.000E-02
 STEP TIME COMPLETED       5.000E+03,  TOTAL TIME COMPLETED        5.000E+03


  INCREMENT     6 STARTS. ATTEMPT NUMBER  1, TIME INCREMENT  1.000E+03
 
	UNSYMMETRIC NEW DIRECT SPARSE SOLVER RUNNING ON
 	1 HOST x 1 MPI RANK PER HOST x 4 THREADS PER RANK
        NUMBER OF EQUATIONS:  45663
        NUMBER OF RHS:        1
        NUMBER OF FLOPS:      1.973e+09
        SOLVER ELAPSED TIME:  41ms

               CONVERGENCE CHECKS FOR EQUILIBRIUM ITERATION     1


 AVERAGE FORCE                      1.055E+04   TIME AVG. FORCE       6.611E+03
 LARGEST SCALED RESIDUAL FORCE     -5.584E+03   AT NODE      12485   DOF  2
   INSTANCE: ELASTIC-PLASTIC-PLATE-1                                                         
  CORRESPONDING RESIDUAL FORCE     -5.584E+03
 LARGEST INCREMENT OF DISP.         6.000E-06   AT NODE          3   DOF  2
   INSTANCE: ELASTIC-PLASTIC-PLATE-1                                                         
 LARGEST CORRECTION TO DISP.       -7.157E-07   AT NODE        325   DOF  2
   INSTANCE: ELASTIC-PLASTIC-PLATE-1                                                         
          FORCE     EQUILIBRIUM NOT ACHIEVED WITHIN TOLERANCE.

 AVERAGE HEAT FLUX                  5.494E-13   TIME AVG. HEAT FLUX   1.000E-02
 LARGEST RESIDUAL HEAT FLUX         5.904E-12   AT NODE       2925   DOF 11
   INSTANCE: ELASTIC-PLASTIC-PLATE-1                                                         
 LARGEST INCREMENT OF TEMP.        -4.769E-02   AT NODE          6   DOF 11
   INSTANCE: ELASTIC-PLASTIC-PLATE-1                                                         
 LARGEST CORRECTION TO TEMP.        2.452E-02   AT NODE          6   DOF 11
   INSTANCE: ELASTIC-PLASTIC-PLATE-1                                                         
          THERE IS ZERO HEAT FLUX EVERYWHERE
 

 ***WARNING: THERE IS ZERO HEAT FLUX EVERYWHERE IN THE MODEL BASED ON THE 
             DEFAULT CRITERION. PLEASE CHECK THE VALUE OF THE AVERAGE HEAT FLUX 
             DURING THE CURRENT ITERATION TO VERIFY THAT THE HEAT FLUX IS SMALL 
             ENOUGH TO BE TREATED AS ZERO. IF NOT, PLEASE USE THE SOLUTION 
             CONTROLS TO RESET THE CRITERION FOR ZERO HEAT FLUX.

 COMPATIBILITY ERRORS:
    TYPE                NUMBER EXCEEDING TOLERANCE  MAXIMUM ERROR        IN ELEMENT
 VOLUMETRIC                          0                2.709E-08               2953
   INSTANCE: ELASTIC-PLASTIC-PLATE-1                                                         
 
	UNSYMMETRIC NEW DIRECT SPARSE SOLVER RUNNING ON
 	1 HOST x 1 MPI RANK PER HOST x 4 THREADS PER RANK
        NUMBER OF EQUATIONS:  45663
        NUMBER OF RHS:        1
        NUMBER OF FLOPS:      1.976e+09
        SOLVER ELAPSED TIME:  42ms

               CONVERGENCE CHECKS FOR EQUILIBRIUM ITERATION     2


 AVERAGE FORCE                      1.056E+04   TIME AVG. FORCE       6.613E+03
 LARGEST SCALED RESIDUAL FORCE      -473.       AT NODE      11813   DOF  2
   INSTANCE: ELASTIC-PLASTIC-PLATE-1                                                         
  CORRESPONDING RESIDUAL FORCE      -473.    
 LARGEST INCREMENT OF DISP.         6.000E-06   AT NODE          3   DOF  2
   INSTANCE: ELASTIC-PLASTIC-PLATE-1                                                         
 LARGEST CORRECTION TO DISP.        6.501E-08   AT NODE      12770   DOF  1
   INSTANCE: ELASTIC-PLASTIC-PLATE-1                                                         
          FORCE     EQUILIBRIUM NOT ACHIEVED WITHIN TOLERANCE.

 AVERAGE HEAT FLUX                  5.372E-13   TIME AVG. HEAT FLUX   1.000E-02
 LARGEST RESIDUAL HEAT FLUX         1.166E-11   AT NODE       2705   DOF 11
   INSTANCE: ELASTIC-PLASTIC-PLATE-1                                                         
 LARGEST INCREMENT OF TEMP.        -6.641E-02   AT NODE          6   DOF 11
   INSTANCE: ELASTIC-PLASTIC-PLATE-1                                                         
 LARGEST CORRECTION TO TEMP.       -2.358E-02   AT NODE        259   DOF 11
   INSTANCE: ELASTIC-PLASTIC-PLATE-1                                                         
          THERE IS ZERO HEAT FLUX EVERYWHERE
 

 ***WARNING: THERE IS ZERO HEAT FLUX EVERYWHERE IN THE MODEL BASED ON THE 
             DEFAULT CRITERION. PLEASE CHECK THE VALUE OF THE AVERAGE HEAT FLUX 
             DURING THE CURRENT ITERATION TO VERIFY THAT THE HEAT FLUX IS SMALL 
             ENOUGH TO BE TREATED AS ZERO. IF NOT, PLEASE USE THE SOLUTION 
             CONTROLS TO RESET THE CRITERION FOR ZERO HEAT FLUX.

 COMPATIBILITY ERRORS:
    TYPE                NUMBER EXCEEDING TOLERANCE  MAXIMUM ERROR        IN ELEMENT
 VOLUMETRIC                          0               -3.776E-10               3050
   INSTANCE: ELASTIC-PLASTIC-PLATE-1                                                         
 
	UNSYMMETRIC NEW DIRECT SPARSE SOLVER RUNNING ON
 	1 HOST x 1 MPI RANK PER HOST x 4 THREADS PER RANK
        NUMBER OF EQUATIONS:  45663
        NUMBER OF RHS:        1
        NUMBER OF FLOPS:      1.972e+09
        SOLVER ELAPSED TIME:  40ms

               CONVERGENCE CHECKS FOR EQUILIBRIUM ITERATION     3


 AVERAGE FORCE                      1.056E+04   TIME AVG. FORCE       6.613E+03
 LARGEST SCALED RESIDUAL FORCE       24.8       AT NODE      12768   DOF  2
   INSTANCE: ELASTIC-PLASTIC-PLATE-1                                                         
  CORRESPONDING RESIDUAL FORCE       24.8    
 LARGEST INCREMENT OF DISP.         6.000E-06   AT NODE          3   DOF  2
   INSTANCE: ELASTIC-PLASTIC-PLATE-1                                                         
 LARGEST CORRECTION TO DISP.        3.021E-09   AT NODE       4335   DOF  1
   INSTANCE: ELASTIC-PLASTIC-PLATE-1                                                         
          THE FORCE     EQUILIBRIUM EQUATIONS HAVE CONVERGED

 AVERAGE HEAT FLUX                  5.349E-13   TIME AVG. HEAT FLUX   1.000E-02
 LARGEST RESIDUAL HEAT FLUX         1.112E-11   AT NODE       3365   DOF 11
   INSTANCE: ELASTIC-PLASTIC-PLATE-1                                                         
 LARGEST INCREMENT OF TEMP.        -5.459E-02   AT NODE          6   DOF 11
   INSTANCE: ELASTIC-PLASTIC-PLATE-1                                                         
 LARGEST CORRECTION TO TEMP.       -5.553E-02   AT NODE        258   DOF 11
   INSTANCE: ELASTIC-PLASTIC-PLATE-1                                                         
          THERE IS ZERO HEAT FLUX EVERYWHERE
 

 ***WARNING: THERE IS ZERO HEAT FLUX EVERYWHERE IN THE MODEL BASED ON THE 
             DEFAULT CRITERION. PLEASE CHECK THE VALUE OF THE AVERAGE HEAT FLUX 
             DURING THE CURRENT ITERATION TO VERIFY THAT THE HEAT FLUX IS SMALL 
             ENOUGH TO BE TREATED AS ZERO. IF NOT, PLEASE USE THE SOLUTION 
             CONTROLS TO RESET THE CRITERION FOR ZERO HEAT FLUX.

 COMPATIBILITY ERRORS:
    TYPE                NUMBER EXCEEDING TOLERANCE  MAXIMUM ERROR        IN ELEMENT
 VOLUMETRIC                          0               -1.035E-11               2107
   INSTANCE: ELASTIC-PLASTIC-PLATE-1                                                         

 ITERATION SUMMARY FOR THE INCREMENT:   3 TOTAL ITERATIONS, OF WHICH
   0 ARE SEVERE DISCONTINUITY ITERATIONS AND  3 ARE EQUILIBRIUM ITERATIONS.

 TIME INCREMENT COMPLETED  1.000E+03,  FRACTION OF STEP COMPLETED  6.000E-02
 STEP TIME COMPLETED       6.000E+03,  TOTAL TIME COMPLETED        6.000E+03


  INCREMENT     7 STARTS. ATTEMPT NUMBER  1, TIME INCREMENT  1.000E+03
 
	UNSYMMETRIC NEW DIRECT SPARSE SOLVER RUNNING ON
 	1 HOST x 1 MPI RANK PER HOST x 4 THREADS PER RANK
        NUMBER OF EQUATIONS:  45663
        NUMBER OF RHS:        1
        NUMBER OF FLOPS:      1.990e+09
        SOLVER ELAPSED TIME:  39ms

               CONVERGENCE CHECKS FOR EQUILIBRIUM ITERATION     1


 AVERAGE FORCE                      1.134E+04   TIME AVG. FORCE       7.289E+03
 LARGEST SCALED RESIDUAL FORCE      1.572E+03   AT NODE      12633   DOF  2
   INSTANCE: ELASTIC-PLASTIC-PLATE-1                                                         
  CORRESPONDING RESIDUAL FORCE      1.572E+03
 LARGEST INCREMENT OF DISP.         6.161E-06   AT NODE        206   DOF  2
   INSTANCE: ELASTIC-PLASTIC-PLATE-1                                                         
 LARGEST CORRECTION TO DISP.        6.313E-07   AT NODE       8891   DOF  1
   INSTANCE: ELASTIC-PLASTIC-PLATE-1                                                         
          FORCE     EQUILIBRIUM NOT ACHIEVED WITHIN TOLERANCE.

 AVERAGE HEAT FLUX                  5.968E-13   TIME AVG. HEAT FLUX   1.000E-02
 LARGEST RESIDUAL HEAT FLUX         5.320E-12   AT NODE       2705   DOF 11
   INSTANCE: ELASTIC-PLASTIC-PLATE-1                                                         
 LARGEST INCREMENT OF TEMP.        -4.178E-02   AT NODE          6   DOF 11
   INSTANCE: ELASTIC-PLASTIC-PLATE-1                                                         
 LARGEST CORRECTION TO TEMP.        7.348E-02   AT NODE       3365   DOF 11
   INSTANCE: ELASTIC-PLASTIC-PLATE-1                                                         
          THERE IS ZERO HEAT FLUX EVERYWHERE
 

 ***WARNING: THERE IS ZERO HEAT FLUX EVERYWHERE IN THE MODEL BASED ON THE 
             DEFAULT CRITERION. PLEASE CHECK THE VALUE OF THE AVERAGE HEAT FLUX 
             DURING THE CURRENT ITERATION TO VERIFY THAT THE HEAT FLUX IS SMALL 
             ENOUGH TO BE TREATED AS ZERO. IF NOT, PLEASE USE THE SOLUTION 
             CONTROLS TO RESET THE CRITERION FOR ZERO HEAT FLUX.

 COMPATIBILITY ERRORS:
    TYPE                NUMBER EXCEEDING TOLERANCE  MAXIMUM ERROR        IN ELEMENT
 VOLUMETRIC                          0               -2.269E-08               3306
   INSTANCE: ELASTIC-PLASTIC-PLATE-1                                                         
 
	UNSYMMETRIC NEW DIRECT SPARSE SOLVER RUNNING ON
 	1 HOST x 1 MPI RANK PER HOST x 4 THREADS PER RANK
        NUMBER OF EQUATIONS:  45663
        NUMBER OF RHS:        1
        NUMBER OF FLOPS:      1.991e+09
        SOLVER ELAPSED TIME:  46ms

               CONVERGENCE CHECKS FOR EQUILIBRIUM ITERATION     2


 AVERAGE FORCE                      1.135E+04   TIME AVG. FORCE       7.289E+03
 LARGEST SCALED RESIDUAL FORCE       65.1       AT NODE      11491   DOF  2
   INSTANCE: ELASTIC-PLASTIC-PLATE-1                                                         
  CORRESPONDING RESIDUAL FORCE       65.1    
 LARGEST INCREMENT OF DISP.         6.160E-06   AT NODE        206   DOF  2
   INSTANCE: ELASTIC-PLASTIC-PLATE-1                                                         
 LARGEST CORRECTION TO DISP.        1.644E-08   AT NODE       3080   DOF  2
   INSTANCE: ELASTIC-PLASTIC-PLATE-1                                                         
          FORCE     EQUILIBRIUM NOT ACHIEVED WITHIN TOLERANCE.

 AVERAGE HEAT FLUX                  5.848E-13   TIME AVG. HEAT FLUX   1.000E-02
 LARGEST RESIDUAL HEAT FLUX         1.062E-11   AT NODE       3069   DOF 11
   INSTANCE: ELASTIC-PLASTIC-PLATE-1                                                         
 LARGEST INCREMENT OF TEMP.        -5.484E-02   AT NODE          6   DOF 11
   INSTANCE: ELASTIC-PLASTIC-PLATE-1                                                         
 LARGEST CORRECTION TO TEMP.        1.617E-02   AT NODE       2705   DOF 11
   INSTANCE: ELASTIC-PLASTIC-PLATE-1                                                         
          THERE IS ZERO HEAT FLUX EVERYWHERE
 

 ***WARNING: THERE IS ZERO HEAT FLUX EVERYWHERE IN THE MODEL BASED ON THE 
             DEFAULT CRITERION. PLEASE CHECK THE VALUE OF THE AVERAGE HEAT FLUX 
             DURING THE CURRENT ITERATION TO VERIFY THAT THE HEAT FLUX IS SMALL 
             ENOUGH TO BE TREATED AS ZERO. IF NOT, PLEASE USE THE SOLUTION 
             CONTROLS TO RESET THE CRITERION FOR ZERO HEAT FLUX.

 COMPATIBILITY ERRORS:
    TYPE                NUMBER EXCEEDING TOLERANCE  MAXIMUM ERROR        IN ELEMENT
 VOLUMETRIC                          0               -3.209E-10               3217
   INSTANCE: ELASTIC-PLASTIC-PLATE-1                                                         
 
	UNSYMMETRIC NEW DIRECT SPARSE SOLVER RUNNING ON
 	1 HOST x 1 MPI RANK PER HOST x 4 THREADS PER RANK
        NUMBER OF EQUATIONS:  45663
        NUMBER OF RHS:        1
        NUMBER OF FLOPS:      1.988e+09
        SOLVER ELAPSED TIME:  39ms

               CONVERGENCE CHECKS FOR EQUILIBRIUM ITERATION     3


 AVERAGE FORCE                      1.135E+04   TIME AVG. FORCE       7.290E+03
 LARGEST SCALED RESIDUAL FORCE      0.110       AT NODE       6950   DOF  2
   INSTANCE: ELASTIC-PLASTIC-PLATE-1                                                         
  CORRESPONDING RESIDUAL FORCE      0.110    
 LARGEST INCREMENT OF DISP.         6.160E-06   AT NODE        206   DOF  2
   INSTANCE: ELASTIC-PLASTIC-PLATE-1                                                         
 LARGEST CORRECTION TO DISP.        2.337E-10   AT NODE      11557   DOF  2
   INSTANCE: ELASTIC-PLASTIC-PLATE-1                                                         
          THE FORCE     EQUILIBRIUM EQUATIONS HAVE CONVERGED

 AVERAGE HEAT FLUX                  5.817E-13   TIME AVG. HEAT FLUX   1.000E-02
 LARGEST RESIDUAL HEAT FLUX         3.812E-12   AT NODE       4384   DOF 11
   INSTANCE: ELASTIC-PLASTIC-PLATE-1                                                         
 LARGEST INCREMENT OF TEMP.        -5.166E-02   AT NODE        263   DOF 11
   INSTANCE: ELASTIC-PLASTIC-PLATE-1                                                         
 LARGEST CORRECTION TO TEMP.        4.276E-02   AT NODE       3069   DOF 11
   INSTANCE: ELASTIC-PLASTIC-PLATE-1                                                         
          THERE IS ZERO HEAT FLUX EVERYWHERE
 

 ***WARNING: THERE IS ZERO HEAT FLUX EVERYWHERE IN THE MODEL BASED ON THE 
             DEFAULT CRITERION. PLEASE CHECK THE VALUE OF THE AVERAGE HEAT FLUX 
             DURING THE CURRENT ITERATION TO VERIFY THAT THE HEAT FLUX IS SMALL 
             ENOUGH TO BE TREATED AS ZERO. IF NOT, PLEASE USE THE SOLUTION 
             CONTROLS TO RESET THE CRITERION FOR ZERO HEAT FLUX.

 COMPATIBILITY ERRORS:
    TYPE                NUMBER EXCEEDING TOLERANCE  MAXIMUM ERROR        IN ELEMENT
 VOLUMETRIC                          0               -6.474E-13               3062
   INSTANCE: ELASTIC-PLASTIC-PLATE-1                                                         

 ITERATION SUMMARY FOR THE INCREMENT:   3 TOTAL ITERATIONS, OF WHICH
   0 ARE SEVERE DISCONTINUITY ITERATIONS AND  3 ARE EQUILIBRIUM ITERATIONS.

 TIME INCREMENT COMPLETED  1.000E+03,  FRACTION OF STEP COMPLETED  7.000E-02
 STEP TIME COMPLETED       7.000E+03,  TOTAL TIME COMPLETED        7.000E+03


  INCREMENT     8 STARTS. ATTEMPT NUMBER  1, TIME INCREMENT  1.000E+03
 
	UNSYMMETRIC NEW DIRECT SPARSE SOLVER RUNNING ON
 	1 HOST x 1 MPI RANK PER HOST x 4 THREADS PER RANK
        NUMBER OF EQUATIONS:  45663
        NUMBER OF RHS:        1
        NUMBER OF FLOPS:      2.023e+09
        SOLVER ELAPSED TIME:  47ms

               CONVERGENCE CHECKS FOR EQUILIBRIUM ITERATION     1


 AVERAGE FORCE                      1.198E+04   TIME AVG. FORCE       7.876E+03
 LARGEST SCALED RESIDUAL FORCE       655.       AT NODE      10346   DOF  1
   INSTANCE: ELASTIC-PLASTIC-PLATE-1                                                         
  CORRESPONDING RESIDUAL FORCE       655.    
 LARGEST INCREMENT OF DISP.         6.253E-06   AT NODE        206   DOF  2
   INSTANCE: ELASTIC-PLASTIC-PLATE-1                                                         
 LARGEST CORRECTION TO DISP.       -2.560E-07   AT NODE      10756   DOF  2
   INSTANCE: ELASTIC-PLASTIC-PLATE-1                                                         
          FORCE     EQUILIBRIUM NOT ACHIEVED WITHIN TOLERANCE.

 AVERAGE HEAT FLUX                  6.435E-13   TIME AVG. HEAT FLUX   1.000E-02
 LARGEST RESIDUAL HEAT FLUX        -2.969E-12   AT NODE        257   DOF 11
   INSTANCE: ELASTIC-PLASTIC-PLATE-1                                                         
 LARGEST INCREMENT OF TEMP.        -3.870E-02   AT NODE        263   DOF 11
   INSTANCE: ELASTIC-PLASTIC-PLATE-1                                                         
 LARGEST CORRECTION TO TEMP.       -3.088E-02   AT NODE       2816   DOF 11
   INSTANCE: ELASTIC-PLASTIC-PLATE-1                                                         
          THERE IS ZERO HEAT FLUX EVERYWHERE
 

 ***WARNING: THERE IS ZERO HEAT FLUX EVERYWHERE IN THE MODEL BASED ON THE 
             DEFAULT CRITERION. PLEASE CHECK THE VALUE OF THE AVERAGE HEAT FLUX 
             DURING THE CURRENT ITERATION TO VERIFY THAT THE HEAT FLUX IS SMALL 
             ENOUGH TO BE TREATED AS ZERO. IF NOT, PLEASE USE THE SOLUTION 
             CONTROLS TO RESET THE CRITERION FOR ZERO HEAT FLUX.

 COMPATIBILITY ERRORS:
    TYPE                NUMBER EXCEEDING TOLERANCE  MAXIMUM ERROR        IN ELEMENT
 VOLUMETRIC                          0               -4.133E-09               3306
   INSTANCE: ELASTIC-PLASTIC-PLATE-1                                                         
 
	UNSYMMETRIC NEW DIRECT SPARSE SOLVER RUNNING ON
 	1 HOST x 1 MPI RANK PER HOST x 4 THREADS PER RANK
        NUMBER OF EQUATIONS:  45663
        NUMBER OF RHS:        1
        NUMBER OF FLOPS:      2.036e+09
        SOLVER ELAPSED TIME:  39ms

               CONVERGENCE CHECKS FOR EQUILIBRIUM ITERATION     2


 AVERAGE FORCE                      1.198E+04   TIME AVG. FORCE       7.876E+03
 LARGEST SCALED RESIDUAL FORCE      -29.9       AT NODE       9012   DOF  2
   INSTANCE: ELASTIC-PLASTIC-PLATE-1                                                         
  CORRESPONDING RESIDUAL FORCE      -29.9    
 LARGEST INCREMENT OF DISP.         6.253E-06   AT NODE        206   DOF  2
   INSTANCE: ELASTIC-PLASTIC-PLATE-1                                                         
 LARGEST CORRECTION TO DISP.       -9.935E-09   AT NODE       3373   DOF  2
   INSTANCE: ELASTIC-PLASTIC-PLATE-1                                                         
          THE FORCE     EQUILIBRIUM EQUATIONS HAVE CONVERGED

 AVERAGE HEAT FLUX                  6.287E-13   TIME AVG. HEAT FLUX   1.000E-02
 LARGEST RESIDUAL HEAT FLUX         1.167E-11   AT NODE       2817   DOF 11
   INSTANCE: ELASTIC-PLASTIC-PLATE-1                                                         
 LARGEST INCREMENT OF TEMP.        -4.786E-02   AT NODE        263   DOF 11
   INSTANCE: ELASTIC-PLASTIC-PLATE-1                                                         
 LARGEST CORRECTION TO TEMP.       -1.636E-02   AT NODE        257   DOF 11
   INSTANCE: ELASTIC-PLASTIC-PLATE-1                                                         
          THERE IS ZERO HEAT FLUX EVERYWHERE
 

 ***WARNING: THERE IS ZERO HEAT FLUX EVERYWHERE IN THE MODEL BASED ON THE 
             DEFAULT CRITERION. PLEASE CHECK THE VALUE OF THE AVERAGE HEAT FLUX 
             DURING THE CURRENT ITERATION TO VERIFY THAT THE HEAT FLUX IS SMALL 
             ENOUGH TO BE TREATED AS ZERO. IF NOT, PLEASE USE THE SOLUTION 
             CONTROLS TO RESET THE CRITERION FOR ZERO HEAT FLUX.

 COMPATIBILITY ERRORS:
    TYPE                NUMBER EXCEEDING TOLERANCE  MAXIMUM ERROR        IN ELEMENT
 VOLUMETRIC                          0               -1.521E-10               3062
   INSTANCE: ELASTIC-PLASTIC-PLATE-1                                                         

 ITERATION SUMMARY FOR THE INCREMENT:   2 TOTAL ITERATIONS, OF WHICH
   0 ARE SEVERE DISCONTINUITY ITERATIONS AND  2 ARE EQUILIBRIUM ITERATIONS.

 TIME INCREMENT COMPLETED  1.000E+03,  FRACTION OF STEP COMPLETED  8.000E-02
 STEP TIME COMPLETED       8.000E+03,  TOTAL TIME COMPLETED        8.000E+03


  INCREMENT     9 STARTS. ATTEMPT NUMBER  1, TIME INCREMENT  1.000E+03
 
	UNSYMMETRIC NEW DIRECT SPARSE SOLVER RUNNING ON
 	1 HOST x 1 MPI RANK PER HOST x 4 THREADS PER RANK
        NUMBER OF EQUATIONS:  45663
        NUMBER OF RHS:        1
        NUMBER OF FLOPS:      2.070e+09
        SOLVER ELAPSED TIME:  43ms

               CONVERGENCE CHECKS FOR EQUILIBRIUM ITERATION     1


 AVERAGE FORCE                      1.252E+04   TIME AVG. FORCE       8.391E+03
 LARGEST SCALED RESIDUAL FORCE      -618.       AT NODE      11555   DOF  2
   INSTANCE: ELASTIC-PLASTIC-PLATE-1                                                         
  CORRESPONDING RESIDUAL FORCE      -618.    
 LARGEST INCREMENT OF DISP.         6.299E-06   AT NODE        206   DOF  2
   INSTANCE: ELASTIC-PLASTIC-PLATE-1                                                         
 LARGEST CORRECTION TO DISP.       -1.376E-07   AT NODE       9638   DOF  2
   INSTANCE: ELASTIC-PLASTIC-PLATE-1                                                         
          FORCE     EQUILIBRIUM NOT ACHIEVED WITHIN TOLERANCE.

 AVERAGE HEAT FLUX                  6.829E-13   TIME AVG. HEAT FLUX   1.000E-02
 LARGEST RESIDUAL HEAT FLUX         2.095E-12   AT NODE       2817   DOF 11
   INSTANCE: ELASTIC-PLASTIC-PLATE-1                                                         
 LARGEST INCREMENT OF TEMP.        -6.447E-02   AT NODE        257   DOF 11
   INSTANCE: ELASTIC-PLASTIC-PLATE-1                                                         
 LARGEST CORRECTION TO TEMP.        5.320E-02   AT NODE       2817   DOF 11
   INSTANCE: ELASTIC-PLASTIC-PLATE-1                                                         
          THERE IS ZERO HEAT FLUX EVERYWHERE
 

 ***WARNING: THERE IS ZERO HEAT FLUX EVERYWHERE IN THE MODEL BASED ON THE 
             DEFAULT CRITERION. PLEASE CHECK THE VALUE OF THE AVERAGE HEAT FLUX 
             DURING THE CURRENT ITERATION TO VERIFY THAT THE HEAT FLUX IS SMALL 
             ENOUGH TO BE TREATED AS ZERO. IF NOT, PLEASE USE THE SOLUTION 
             CONTROLS TO RESET THE CRITERION FOR ZERO HEAT FLUX.

 COMPATIBILITY ERRORS:
    TYPE                NUMBER EXCEEDING TOLERANCE  MAXIMUM ERROR        IN ELEMENT
 VOLUMETRIC                          0                1.230E-09               2889
   INSTANCE: ELASTIC-PLASTIC-PLATE-1                                                         
 
	UNSYMMETRIC NEW DIRECT SPARSE SOLVER RUNNING ON
 	1 HOST x 1 MPI RANK PER HOST x 4 THREADS PER RANK
        NUMBER OF EQUATIONS:  45663
        NUMBER OF RHS:        1
        NUMBER OF FLOPS:      2.081e+09
        SOLVER ELAPSED TIME:  46ms

               CONVERGENCE CHECKS FOR EQUILIBRIUM ITERATION     2


 AVERAGE FORCE                      1.252E+04   TIME AVG. FORCE       8.392E+03
 LARGEST SCALED RESIDUAL FORCE      -39.8       AT NODE      11512   DOF  2
   INSTANCE: ELASTIC-PLASTIC-PLATE-1                                                         
  CORRESPONDING RESIDUAL FORCE      -39.8    
 LARGEST INCREMENT OF DISP.         6.299E-06   AT NODE        206   DOF  2
   INSTANCE: ELASTIC-PLASTIC-PLATE-1                                                         
 LARGEST CORRECTION TO DISP.       -7.591E-09   AT NODE      11557   DOF  2
   INSTANCE: ELASTIC-PLASTIC-PLATE-1                                                         
          THE FORCE     EQUILIBRIUM EQUATIONS HAVE CONVERGED

 AVERAGE HEAT FLUX                  6.691E-13   TIME AVG. HEAT FLUX   1.000E-02
 LARGEST RESIDUAL HEAT FLUX        -5.867E-12   AT NODE       4326   DOF 11
   INSTANCE: ELASTIC-PLASTIC-PLATE-1                                                         
 LARGEST INCREMENT OF TEMP.        -7.271E-02   AT NODE        257   DOF 11
   INSTANCE: ELASTIC-PLASTIC-PLATE-1                                                         
 LARGEST CORRECTION TO TEMP.       -8.605E-03   AT NODE          6   DOF 11
   INSTANCE: ELASTIC-PLASTIC-PLATE-1                                                         
          THERE IS ZERO HEAT FLUX EVERYWHERE
 

 ***WARNING: THERE IS ZERO HEAT FLUX EVERYWHERE IN THE MODEL BASED ON THE 
             DEFAULT CRITERION. PLEASE CHECK THE VALUE OF THE AVERAGE HEAT FLUX 
             DURING THE CURRENT ITERATION TO VERIFY THAT THE HEAT FLUX IS SMALL 
             ENOUGH TO BE TREATED AS ZERO. IF NOT, PLEASE USE THE SOLUTION 
             CONTROLS TO RESET THE CRITERION FOR ZERO HEAT FLUX.

 COMPATIBILITY ERRORS:
    TYPE                NUMBER EXCEEDING TOLERANCE  MAXIMUM ERROR        IN ELEMENT
 VOLUMETRIC                          0               -1.094E-10               2889
   INSTANCE: ELASTIC-PLASTIC-PLATE-1                                                         

 ITERATION SUMMARY FOR THE INCREMENT:   2 TOTAL ITERATIONS, OF WHICH
   0 ARE SEVERE DISCONTINUITY ITERATIONS AND  2 ARE EQUILIBRIUM ITERATIONS.

 TIME INCREMENT COMPLETED  1.000E+03,  FRACTION OF STEP COMPLETED  9.000E-02
 STEP TIME COMPLETED       9.000E+03,  TOTAL TIME COMPLETED        9.000E+03


  INCREMENT    10 STARTS. ATTEMPT NUMBER  1, TIME INCREMENT  1.000E+03
 
	UNSYMMETRIC NEW DIRECT SPARSE SOLVER RUNNING ON
 	1 HOST x 1 MPI RANK PER HOST x 4 THREADS PER RANK
        NUMBER OF EQUATIONS:  45663
        NUMBER OF RHS:        1
        NUMBER OF FLOPS:      2.070e+09
        SOLVER ELAPSED TIME:  40ms

               CONVERGENCE CHECKS FOR EQUILIBRIUM ITERATION     1


 AVERAGE FORCE                      1.299E+04   TIME AVG. FORCE       8.851E+03
 LARGEST SCALED RESIDUAL FORCE       258.       AT NODE      11514   DOF  2
   INSTANCE: ELASTIC-PLASTIC-PLATE-1                                                         
  CORRESPONDING RESIDUAL FORCE       258.    
 LARGEST INCREMENT OF DISP.         6.324E-06   AT NODE      12470   DOF  2
   INSTANCE: ELASTIC-PLASTIC-PLATE-1                                                         
 LARGEST CORRECTION TO DISP.        8.538E-08   AT NODE       8871   DOF  1
   INSTANCE: ELASTIC-PLASTIC-PLATE-1                                                         
          FORCE     EQUILIBRIUM NOT ACHIEVED WITHIN TOLERANCE.

 AVERAGE HEAT FLUX                  7.161E-13   TIME AVG. HEAT FLUX   1.000E-02
 LARGEST RESIDUAL HEAT FLUX         2.896E-12   AT NODE       2817   DOF 11
   INSTANCE: ELASTIC-PLASTIC-PLATE-1                                                         
 LARGEST INCREMENT OF TEMP.        -3.145E-02   AT NODE        263   DOF 11
   INSTANCE: ELASTIC-PLASTIC-PLATE-1                                                         
 LARGEST CORRECTION TO TEMP.        7.118E-02   AT NODE        257   DOF 11
   INSTANCE: ELASTIC-PLASTIC-PLATE-1                                                         
          THERE IS ZERO HEAT FLUX EVERYWHERE
 

 ***WARNING: THERE IS ZERO HEAT FLUX EVERYWHERE IN THE MODEL BASED ON THE 
             DEFAULT CRITERION. PLEASE CHECK THE VALUE OF THE AVERAGE HEAT FLUX 
             DURING THE CURRENT ITERATION TO VERIFY THAT THE HEAT FLUX IS SMALL 
             ENOUGH TO BE TREATED AS ZERO. IF NOT, PLEASE USE THE SOLUTION 
             CONTROLS TO RESET THE CRITERION FOR ZERO HEAT FLUX.

 COMPATIBILITY ERRORS:
    TYPE                NUMBER EXCEEDING TOLERANCE  MAXIMUM ERROR        IN ELEMENT
 VOLUMETRIC                          0                3.216E-10               2491
   INSTANCE: ELASTIC-PLASTIC-PLATE-1                                                         
 
	UNSYMMETRIC NEW DIRECT SPARSE SOLVER RUNNING ON
 	1 HOST x 1 MPI RANK PER HOST x 4 THREADS PER RANK
        NUMBER OF EQUATIONS:  45663
        NUMBER OF RHS:        1
        NUMBER OF FLOPS:      2.073e+09
        SOLVER ELAPSED TIME:  42ms

               CONVERGENCE CHECKS FOR EQUILIBRIUM ITERATION     2


 AVERAGE FORCE                      1.299E+04   TIME AVG. FORCE       8.851E+03
 LARGEST SCALED RESIDUAL FORCE      -5.86       AT NODE      11928   DOF  1
   INSTANCE: ELASTIC-PLASTIC-PLATE-1                                                         
  CORRESPONDING RESIDUAL FORCE      -5.86    
 LARGEST INCREMENT OF DISP.         6.324E-06   AT NODE      12470   DOF  2
   INSTANCE: ELASTIC-PLASTIC-PLATE-1                                                         
 LARGEST CORRECTION TO DISP.       -4.041E-09   AT NODE       2893   DOF  2
   INSTANCE: ELASTIC-PLASTIC-PLATE-1                                                         
          THE FORCE     EQUILIBRIUM EQUATIONS HAVE CONVERGED

 AVERAGE HEAT FLUX                  7.047E-13   TIME AVG. HEAT FLUX   1.000E-02
 LARGEST RESIDUAL HEAT FLUX        -5.419E-12   AT NODE       2690   DOF 11
   INSTANCE: ELASTIC-PLASTIC-PLATE-1                                                         
 LARGEST INCREMENT OF TEMP.        -3.815E-02   AT NODE        263   DOF 11
   INSTANCE: ELASTIC-PLASTIC-PLATE-1                                                         
 LARGEST CORRECTION TO TEMP.       -1.017E-02   AT NODE        256   DOF 11
   INSTANCE: ELASTIC-PLASTIC-PLATE-1                                                         
          THERE IS ZERO HEAT FLUX EVERYWHERE
 

 ***WARNING: THERE IS ZERO HEAT FLUX EVERYWHERE IN THE MODEL BASED ON THE 
             DEFAULT CRITERION. PLEASE CHECK THE VALUE OF THE AVERAGE HEAT FLUX 
             DURING THE CURRENT ITERATION TO VERIFY THAT THE HEAT FLUX IS SMALL 
             ENOUGH TO BE TREATED AS ZERO. IF NOT, PLEASE USE THE SOLUTION 
             CONTROLS TO RESET THE CRITERION FOR ZERO HEAT FLUX.

 COMPATIBILITY ERRORS:
    TYPE                NUMBER EXCEEDING TOLERANCE  MAXIMUM ERROR        IN ELEMENT
 VOLUMETRIC                          0               -2.841E-11               2876
   INSTANCE: ELASTIC-PLASTIC-PLATE-1                                                         

 ITERATION SUMMARY FOR THE INCREMENT:   2 TOTAL ITERATIONS, OF WHICH
   0 ARE SEVERE DISCONTINUITY ITERATIONS AND  2 ARE EQUILIBRIUM ITERATIONS.

 TIME INCREMENT COMPLETED  1.000E+03,  FRACTION OF STEP COMPLETED  0.100    
 STEP TIME COMPLETED       1.000E+04,  TOTAL TIME COMPLETED        1.000E+04


  INCREMENT    11 STARTS. ATTEMPT NUMBER  1, TIME INCREMENT  1.000E+03
 
	UNSYMMETRIC NEW DIRECT SPARSE SOLVER RUNNING ON
 	1 HOST x 1 MPI RANK PER HOST x 4 THREADS PER RANK
        NUMBER OF EQUATIONS:  45663
        NUMBER OF RHS:        1
        NUMBER OF FLOPS:      2.093e+09
        SOLVER ELAPSED TIME:  40ms

               CONVERGENCE CHECKS FOR EQUILIBRIUM ITERATION     1


 AVERAGE FORCE                      1.340E+04   TIME AVG. FORCE       9.265E+03
 LARGEST SCALED RESIDUAL FORCE       212.       AT NODE       4325   DOF  2
   INSTANCE: ELASTIC-PLASTIC-PLATE-1                                                         
  CORRESPONDING RESIDUAL FORCE       212.    
 LARGEST INCREMENT OF DISP.         6.338E-06   AT NODE      12470   DOF  2
   INSTANCE: ELASTIC-PLASTIC-PLATE-1                                                         
 LARGEST CORRECTION TO DISP.        5.732E-08   AT NODE       8867   DOF  1
   INSTANCE: ELASTIC-PLASTIC-PLATE-1                                                         
          FORCE     EQUILIBRIUM NOT ACHIEVED WITHIN TOLERANCE.

 AVERAGE HEAT FLUX                  7.457E-13   TIME AVG. HEAT FLUX   1.000E-02
 LARGEST RESIDUAL HEAT FLUX        -2.983E-12   AT NODE       3776   DOF 11
   INSTANCE: ELASTIC-PLASTIC-PLATE-1                                                         
 LARGEST INCREMENT OF TEMP.        -5.075E-02   AT NODE        256   DOF 11
   INSTANCE: ELASTIC-PLASTIC-PLATE-1                                                         
 LARGEST CORRECTION TO TEMP.       -4.125E-02   AT NODE       2690   DOF 11
   INSTANCE: ELASTIC-PLASTIC-PLATE-1                                                         
          THERE IS ZERO HEAT FLUX EVERYWHERE
 

 ***WARNING: THERE IS ZERO HEAT FLUX EVERYWHERE IN THE MODEL BASED ON THE 
             DEFAULT CRITERION. PLEASE CHECK THE VALUE OF THE AVERAGE HEAT FLUX 
             DURING THE CURRENT ITERATION TO VERIFY THAT THE HEAT FLUX IS SMALL 
             ENOUGH TO BE TREATED AS ZERO. IF NOT, PLEASE USE THE SOLUTION 
             CONTROLS TO RESET THE CRITERION FOR ZERO HEAT FLUX.

 COMPATIBILITY ERRORS:
    TYPE                NUMBER EXCEEDING TOLERANCE  MAXIMUM ERROR        IN ELEMENT
 VOLUMETRIC                          0               -1.549E-10               2876
   INSTANCE: ELASTIC-PLASTIC-PLATE-1                                                         
 
	UNSYMMETRIC NEW DIRECT SPARSE SOLVER RUNNING ON
 	1 HOST x 1 MPI RANK PER HOST x 4 THREADS PER RANK
        NUMBER OF EQUATIONS:  45663
        NUMBER OF RHS:        1
        NUMBER OF FLOPS:      2.099e+09
        SOLVER ELAPSED TIME:  46ms

               CONVERGENCE CHECKS FOR EQUILIBRIUM ITERATION     2


 AVERAGE FORCE                      1.340E+04   TIME AVG. FORCE       9.265E+03
 LARGEST SCALED RESIDUAL FORCE      0.417       AT NODE       4325   DOF  1
   INSTANCE: ELASTIC-PLASTIC-PLATE-1                                                         
  CORRESPONDING RESIDUAL FORCE      0.417    
 LARGEST INCREMENT OF DISP.         6.338E-06   AT NODE      12470   DOF  2
   INSTANCE: ELASTIC-PLASTIC-PLATE-1                                                         
 LARGEST CORRECTION TO DISP.       -1.943E-09   AT NODE      12302   DOF  2
   INSTANCE: ELASTIC-PLASTIC-PLATE-1                                                         
          THE FORCE     EQUILIBRIUM EQUATIONS HAVE CONVERGED

 AVERAGE HEAT FLUX                  7.378E-13   TIME AVG. HEAT FLUX   1.000E-02
 LARGEST RESIDUAL HEAT FLUX        -6.375E-12   AT NODE       2653   DOF 11
   INSTANCE: ELASTIC-PLASTIC-PLATE-1                                                         
 LARGEST INCREMENT OF TEMP.        -6.014E-02   AT NODE        256   DOF 11
   INSTANCE: ELASTIC-PLASTIC-PLATE-1                                                         
 LARGEST CORRECTION TO TEMP.       -9.389E-03   AT NODE        256   DOF 11
   INSTANCE: ELASTIC-PLASTIC-PLATE-1                                                         
          THERE IS ZERO HEAT FLUX EVERYWHERE
 

 ***WARNING: THERE IS ZERO HEAT FLUX EVERYWHERE IN THE MODEL BASED ON THE 
             DEFAULT CRITERION. PLEASE CHECK THE VALUE OF THE AVERAGE HEAT FLUX 
             DURING THE CURRENT ITERATION TO VERIFY THAT THE HEAT FLUX IS SMALL 
             ENOUGH TO BE TREATED AS ZERO. IF NOT, PLEASE USE THE SOLUTION 
             CONTROLS TO RESET THE CRITERION FOR ZERO HEAT FLUX.

 COMPATIBILITY ERRORS:
    TYPE                NUMBER EXCEEDING TOLERANCE  MAXIMUM ERROR        IN ELEMENT
 VOLUMETRIC                          0                7.543E-12               3220
   INSTANCE: ELASTIC-PLASTIC-PLATE-1                                                         

 ITERATION SUMMARY FOR THE INCREMENT:   2 TOTAL ITERATIONS, OF WHICH
   0 ARE SEVERE DISCONTINUITY ITERATIONS AND  2 ARE EQUILIBRIUM ITERATIONS.

 TIME INCREMENT COMPLETED  1.000E+03,  FRACTION OF STEP COMPLETED  0.110    
 STEP TIME COMPLETED       1.100E+04,  TOTAL TIME COMPLETED        1.100E+04


  INCREMENT    12 STARTS. ATTEMPT NUMBER  1, TIME INCREMENT  1.000E+03
 
	UNSYMMETRIC NEW DIRECT SPARSE SOLVER RUNNING ON
 	1 HOST x 1 MPI RANK PER HOST x 4 THREADS PER RANK
        NUMBER OF EQUATIONS:  45663
        NUMBER OF RHS:        1
        NUMBER OF FLOPS:      2.113e+09
        SOLVER ELAPSED TIME:  43ms

               CONVERGENCE CHECKS FOR EQUILIBRIUM ITERATION     1


 AVERAGE FORCE                      1.378E+04   TIME AVG. FORCE       9.641E+03
 LARGEST SCALED RESIDUAL FORCE       114.       AT NODE       4103   DOF  2
   INSTANCE: ELASTIC-PLASTIC-PLATE-1                                                         
  CORRESPONDING RESIDUAL FORCE       114.    
 LARGEST INCREMENT OF DISP.         6.346E-06   AT NODE      12470   DOF  2
   INSTANCE: ELASTIC-PLASTIC-PLATE-1                                                         
 LARGEST CORRECTION TO DISP.        4.049E-08   AT NODE        135   DOF  1
   INSTANCE: ELASTIC-PLASTIC-PLATE-1                                                         
          FORCE     EQUILIBRIUM NOT ACHIEVED WITHIN TOLERANCE.

 AVERAGE HEAT FLUX                  7.736E-13   TIME AVG. HEAT FLUX   1.000E-02
 LARGEST RESIDUAL HEAT FLUX        -2.614E-12   AT NODE       2690   DOF 11
   INSTANCE: ELASTIC-PLASTIC-PLATE-1                                                         
 LARGEST INCREMENT OF TEMP.         2.705E-02   AT NODE       4325   DOF 11
   INSTANCE: ELASTIC-PLASTIC-PLATE-1                                                         
 LARGEST CORRECTION TO TEMP.       -3.926E-02   AT NODE       2993   DOF 11
   INSTANCE: ELASTIC-PLASTIC-PLATE-1                                                         
          THERE IS ZERO HEAT FLUX EVERYWHERE
 

 ***WARNING: THERE IS ZERO HEAT FLUX EVERYWHERE IN THE MODEL BASED ON THE 
             DEFAULT CRITERION. PLEASE CHECK THE VALUE OF THE AVERAGE HEAT FLUX 
             DURING THE CURRENT ITERATION TO VERIFY THAT THE HEAT FLUX IS SMALL 
             ENOUGH TO BE TREATED AS ZERO. IF NOT, PLEASE USE THE SOLUTION 
             CONTROLS TO RESET THE CRITERION FOR ZERO HEAT FLUX.

 COMPATIBILITY ERRORS:
    TYPE                NUMBER EXCEEDING TOLERANCE  MAXIMUM ERROR        IN ELEMENT
 VOLUMETRIC                          0               -1.306E-10               3892
   INSTANCE: ELASTIC-PLASTIC-PLATE-1                                                         
 
	UNSYMMETRIC NEW DIRECT SPARSE SOLVER RUNNING ON
 	1 HOST x 1 MPI RANK PER HOST x 4 THREADS PER RANK
        NUMBER OF EQUATIONS:  45663
        NUMBER OF RHS:        1
        NUMBER OF FLOPS:      2.119e+09
        SOLVER ELAPSED TIME:  44ms

               CONVERGENCE CHECKS FOR EQUILIBRIUM ITERATION     2


 AVERAGE FORCE                      1.378E+04   TIME AVG. FORCE       9.641E+03
 LARGEST SCALED RESIDUAL FORCE       8.28       AT NODE       4103   DOF  1
   INSTANCE: ELASTIC-PLASTIC-PLATE-1                                                         
  CORRESPONDING RESIDUAL FORCE       8.28    
 LARGEST INCREMENT OF DISP.         6.346E-06   AT NODE      12470   DOF  2
   INSTANCE: ELASTIC-PLASTIC-PLATE-1                                                         
 LARGEST CORRECTION TO DISP.        1.284E-09   AT NODE      11248   DOF  2
   INSTANCE: ELASTIC-PLASTIC-PLATE-1                                                         
          THE FORCE     EQUILIBRIUM EQUATIONS HAVE CONVERGED

 AVERAGE HEAT FLUX                  7.678E-13   TIME AVG. HEAT FLUX   1.000E-02
 LARGEST RESIDUAL HEAT FLUX        -6.548E-12   AT NODE       4400   DOF 11
   INSTANCE: ELASTIC-PLASTIC-PLATE-1                                                         
 LARGEST INCREMENT OF TEMP.         3.176E-02   AT NODE       4325   DOF 11
   INSTANCE: ELASTIC-PLASTIC-PLATE-1                                                         
 LARGEST CORRECTION TO TEMP.       -1.391E-02   AT NODE       2690   DOF 11
   INSTANCE: ELASTIC-PLASTIC-PLATE-1                                                         
          THERE IS ZERO HEAT FLUX EVERYWHERE
 

 ***WARNING: THERE IS ZERO HEAT FLUX EVERYWHERE IN THE MODEL BASED ON THE 
             DEFAULT CRITERION. PLEASE CHECK THE VALUE OF THE AVERAGE HEAT FLUX 
             DURING THE CURRENT ITERATION TO VERIFY THAT THE HEAT FLUX IS SMALL 
             ENOUGH TO BE TREATED AS ZERO. IF NOT, PLEASE USE THE SOLUTION 
             CONTROLS TO RESET THE CRITERION FOR ZERO HEAT FLUX.

 COMPATIBILITY ERRORS:
    TYPE                NUMBER EXCEEDING TOLERANCE  MAXIMUM ERROR        IN ELEMENT
 VOLUMETRIC                          0                2.811E-12               3133
   INSTANCE: ELASTIC-PLASTIC-PLATE-1                                                         

 ITERATION SUMMARY FOR THE INCREMENT:   2 TOTAL ITERATIONS, OF WHICH
   0 ARE SEVERE DISCONTINUITY ITERATIONS AND  2 ARE EQUILIBRIUM ITERATIONS.

 TIME INCREMENT COMPLETED  1.000E+03,  FRACTION OF STEP COMPLETED  0.120    
 STEP TIME COMPLETED       1.200E+04,  TOTAL TIME COMPLETED        1.200E+04


  INCREMENT    13 STARTS. ATTEMPT NUMBER  1, TIME INCREMENT  1.000E+03
 
	UNSYMMETRIC NEW DIRECT SPARSE SOLVER RUNNING ON
 	1 HOST x 1 MPI RANK PER HOST x 4 THREADS PER RANK
        NUMBER OF EQUATIONS:  45663
        NUMBER OF RHS:        1
        NUMBER OF FLOPS:      2.130e+09
        SOLVER ELAPSED TIME:  40ms

               CONVERGENCE CHECKS FOR EQUILIBRIUM ITERATION     1


 AVERAGE FORCE                      1.413E+04   TIME AVG. FORCE       9.986E+03
 LARGEST SCALED RESIDUAL FORCE      -136.       AT NODE      13198   DOF  2
   INSTANCE: ELASTIC-PLASTIC-PLATE-1                                                         
  CORRESPONDING RESIDUAL FORCE      -136.    
 LARGEST INCREMENT OF DISP.         6.350E-06   AT NODE      12470   DOF  2
   INSTANCE: ELASTIC-PLASTIC-PLATE-1                                                         
 LARGEST CORRECTION TO DISP.        3.008E-08   AT NODE        140   DOF  1
[...]
 
	UNSYMMETRIC NEW DIRECT SPARSE SOLVER RUNNING ON
 	1 HOST x 1 MPI RANK PER HOST x 4 THREADS PER RANK
        NUMBER OF EQUATIONS:  45663
        NUMBER OF RHS:        1
        NUMBER OF FLOPS:      1.963e+09
        SOLVER ELAPSED TIME:  44ms

               CONVERGENCE CHECKS FOR EQUILIBRIUM ITERATION     1


 AVERAGE FORCE                      2.399E+04   TIME AVG. FORCE       1.895E+04
 LARGEST SCALED RESIDUAL FORCE      -7.30       AT NODE       7843   DOF  2
   INSTANCE: ELASTIC-PLASTIC-PLATE-1                                                         
  CORRESPONDING RESIDUAL FORCE      -7.30    
 LARGEST INCREMENT OF DISP.         6.208E-06   AT NODE          5   DOF  2
   INSTANCE: ELASTIC-PLASTIC-PLATE-1                                                         
 LARGEST CORRECTION TO DISP.        2.448E-09   AT NODE        265   DOF  1
   INSTANCE: ELASTIC-PLASTIC-PLATE-1                                                         
          THE FORCE     EQUILIBRIUM EQUATIONS HAVE CONVERGED

 AVERAGE HEAT FLUX                  1.467E-12   TIME AVG. HEAT FLUX   1.000E-02
 LARGEST RESIDUAL HEAT FLUX         8.462E-13   AT NODE       3038   DOF 11
   INSTANCE: ELASTIC-PLASTIC-PLATE-1                                                         
 LARGEST INCREMENT OF TEMP.        -1.532E-02   AT NODE        250   DOF 11
   INSTANCE: ELASTIC-PLASTIC-PLATE-1                                                         
 LARGEST CORRECTION TO TEMP.       -2.697E-03   AT NODE       3261   DOF 11
   INSTANCE: ELASTIC-PLASTIC-PLATE-1                                                         
          THERE IS ZERO HEAT FLUX EVERYWHERE
 

 ***WARNING: THERE IS ZERO HEAT FLUX EVERYWHERE IN THE MODEL BASED ON THE 
             DEFAULT CRITERION. PLEASE CHECK THE VALUE OF THE AVERAGE HEAT FLUX 
             DURING THE CURRENT ITERATION TO VERIFY THAT THE HEAT FLUX IS SMALL 
             ENOUGH TO BE TREATED AS ZERO. IF NOT, PLEASE USE THE SOLUTION 
             CONTROLS TO RESET THE CRITERION FOR ZERO HEAT FLUX.

 COMPATIBILITY ERRORS:
    TYPE                NUMBER EXCEEDING TOLERANCE  MAXIMUM ERROR        IN ELEMENT
 VOLUMETRIC                          0               -3.340E-12               3306
   INSTANCE: ELASTIC-PLASTIC-PLATE-1                                                         

 ITERATION SUMMARY FOR THE INCREMENT:   1 TOTAL ITERATIONS, OF WHICH
   0 ARE SEVERE DISCONTINUITY ITERATIONS AND  1 ARE EQUILIBRIUM ITERATIONS.

 TIME INCREMENT COMPLETED  1.000E+03,  FRACTION OF STEP COMPLETED  0.940    
 STEP TIME COMPLETED       9.400E+04,  TOTAL TIME COMPLETED        9.400E+04


  INCREMENT    95 STARTS. ATTEMPT NUMBER  1, TIME INCREMENT  1.000E+03
 
	UNSYMMETRIC NEW DIRECT SPARSE SOLVER RUNNING ON
 	1 HOST x 1 MPI RANK PER HOST x 4 THREADS PER RANK
        NUMBER OF EQUATIONS:  45663
        NUMBER OF RHS:        1
        NUMBER OF FLOPS:      1.965e+09
        SOLVER ELAPSED TIME:  38ms

               CONVERGENCE CHECKS FOR EQUILIBRIUM ITERATION     1


 AVERAGE FORCE                      2.405E+04   TIME AVG. FORCE       1.900E+04
 LARGEST SCALED RESIDUAL FORCE       6.70       AT NODE       7964   DOF  2
   INSTANCE: ELASTIC-PLASTIC-PLATE-1                                                         
  CORRESPONDING RESIDUAL FORCE       6.70    
 LARGEST INCREMENT OF DISP.         6.207E-06   AT NODE          5   DOF  2
   INSTANCE: ELASTIC-PLASTIC-PLATE-1                                                         
 LARGEST CORRECTION TO DISP.        2.624E-09   AT NODE        265   DOF  1
   INSTANCE: ELASTIC-PLASTIC-PLATE-1                                                         
          THE FORCE     EQUILIBRIUM EQUATIONS HAVE CONVERGED

 AVERAGE HEAT FLUX                  1.470E-12   TIME AVG. HEAT FLUX   1.000E-02
 LARGEST RESIDUAL HEAT FLUX         8.617E-13   AT NODE       3038   DOF 11
   INSTANCE: ELASTIC-PLASTIC-PLATE-1                                                         
 LARGEST INCREMENT OF TEMP.        -1.526E-02   AT NODE        250   DOF 11
   INSTANCE: ELASTIC-PLASTIC-PLATE-1                                                         
 LARGEST CORRECTION TO TEMP.       -1.630E-03   AT NODE       4587   DOF 11
   INSTANCE: ELASTIC-PLASTIC-PLATE-1                                                         
          THERE IS ZERO HEAT FLUX EVERYWHERE
 

 ***WARNING: THERE IS ZERO HEAT FLUX EVERYWHERE IN THE MODEL BASED ON THE 
             DEFAULT CRITERION. PLEASE CHECK THE VALUE OF THE AVERAGE HEAT FLUX 
             DURING THE CURRENT ITERATION TO VERIFY THAT THE HEAT FLUX IS SMALL 
             ENOUGH TO BE TREATED AS ZERO. IF NOT, PLEASE USE THE SOLUTION 
             CONTROLS TO RESET THE CRITERION FOR ZERO HEAT FLUX.

 COMPATIBILITY ERRORS:
    TYPE                NUMBER EXCEEDING TOLERANCE  MAXIMUM ERROR        IN ELEMENT
 VOLUMETRIC                          0               -3.335E-12               3306
   INSTANCE: ELASTIC-PLASTIC-PLATE-1                                                         

 ITERATION SUMMARY FOR THE INCREMENT:   1 TOTAL ITERATIONS, OF WHICH
   0 ARE SEVERE DISCONTINUITY ITERATIONS AND  1 ARE EQUILIBRIUM ITERATIONS.

 TIME INCREMENT COMPLETED  1.000E+03,  FRACTION OF STEP COMPLETED  0.950    
 STEP TIME COMPLETED       9.500E+04,  TOTAL TIME COMPLETED        9.500E+04


  INCREMENT    96 STARTS. ATTEMPT NUMBER  1, TIME INCREMENT  1.000E+03
 
	UNSYMMETRIC NEW DIRECT SPARSE SOLVER RUNNING ON
 	1 HOST x 1 MPI RANK PER HOST x 4 THREADS PER RANK
        NUMBER OF EQUATIONS:  45663
        NUMBER OF RHS:        1
        NUMBER OF FLOPS:      1.961e+09
        SOLVER ELAPSED TIME:  39ms

               CONVERGENCE CHECKS FOR EQUILIBRIUM ITERATION     1


 AVERAGE FORCE                      2.411E+04   TIME AVG. FORCE       1.906E+04
 LARGEST SCALED RESIDUAL FORCE      0.528       AT NODE       8221   DOF  2
   INSTANCE: ELASTIC-PLASTIC-PLATE-1                                                         
  CORRESPONDING RESIDUAL FORCE      0.528    
 LARGEST INCREMENT OF DISP.         6.207E-06   AT NODE          5   DOF  2
   INSTANCE: ELASTIC-PLASTIC-PLATE-1                                                         
 LARGEST CORRECTION TO DISP.        2.628E-09   AT NODE        265   DOF  1
   INSTANCE: ELASTIC-PLASTIC-PLATE-1                                                         
          THE FORCE     EQUILIBRIUM EQUATIONS HAVE CONVERGED

 AVERAGE HEAT FLUX                  1.473E-12   TIME AVG. HEAT FLUX   1.000E-02
 LARGEST RESIDUAL HEAT FLUX         8.492E-13   AT NODE       3038   DOF 11
   INSTANCE: ELASTIC-PLASTIC-PLATE-1                                                         
 LARGEST INCREMENT OF TEMP.        -1.492E-02   AT NODE        250   DOF 11
   INSTANCE: ELASTIC-PLASTIC-PLATE-1                                                         
 LARGEST CORRECTION TO TEMP.       -1.335E-03   AT NODE        179   DOF 11
   INSTANCE: ELASTIC-PLASTIC-PLATE-1                                                         
          THERE IS ZERO HEAT FLUX EVERYWHERE
 

 ***WARNING: THERE IS ZERO HEAT FLUX EVERYWHERE IN THE MODEL BASED ON THE 
             DEFAULT CRITERION. PLEASE CHECK THE VALUE OF THE AVERAGE HEAT FLUX 
             DURING THE CURRENT ITERATION TO VERIFY THAT THE HEAT FLUX IS SMALL 
             ENOUGH TO BE TREATED AS ZERO. IF NOT, PLEASE USE THE SOLUTION 
             CONTROLS TO RESET THE CRITERION FOR ZERO HEAT FLUX.

 COMPATIBILITY ERRORS:
    TYPE                NUMBER EXCEEDING TOLERANCE  MAXIMUM ERROR        IN ELEMENT
 VOLUMETRIC                          0               -3.385E-12               3306
   INSTANCE: ELASTIC-PLASTIC-PLATE-1                                                         

 ITERATION SUMMARY FOR THE INCREMENT:   1 TOTAL ITERATIONS, OF WHICH
   0 ARE SEVERE DISCONTINUITY ITERATIONS AND  1 ARE EQUILIBRIUM ITERATIONS.

 TIME INCREMENT COMPLETED  1.000E+03,  FRACTION OF STEP COMPLETED  0.960    
 STEP TIME COMPLETED       9.600E+04,  TOTAL TIME COMPLETED        9.600E+04


  INCREMENT    97 STARTS. ATTEMPT NUMBER  1, TIME INCREMENT  1.000E+03
 
	UNSYMMETRIC NEW DIRECT SPARSE SOLVER RUNNING ON
 	1 HOST x 1 MPI RANK PER HOST x 4 THREADS PER RANK
        NUMBER OF EQUATIONS:  45663
        NUMBER OF RHS:        1
        NUMBER OF FLOPS:      1.960e+09
        SOLVER ELAPSED TIME:  40ms

               CONVERGENCE CHECKS FOR EQUILIBRIUM ITERATION     1


 AVERAGE FORCE                      2.417E+04   TIME AVG. FORCE       1.911E+04
 LARGEST SCALED RESIDUAL FORCE      -5.25       AT NODE       8569   DOF  2
   INSTANCE: ELASTIC-PLASTIC-PLATE-1                                                         
  CORRESPONDING RESIDUAL FORCE      -5.25    
 LARGEST INCREMENT OF DISP.         6.206E-06   AT NODE          5   DOF  2
   INSTANCE: ELASTIC-PLASTIC-PLATE-1                                                         
 LARGEST CORRECTION TO DISP.        2.582E-09   AT NODE      11800   DOF  1
   INSTANCE: ELASTIC-PLASTIC-PLATE-1                                                         
          THE FORCE     EQUILIBRIUM EQUATIONS HAVE CONVERGED

 AVERAGE HEAT FLUX                  1.476E-12   TIME AVG. HEAT FLUX   1.000E-02
 LARGEST RESIDUAL HEAT FLUX         8.364E-13   AT NODE       3038   DOF 11
   INSTANCE: ELASTIC-PLASTIC-PLATE-1                                                         
 LARGEST INCREMENT OF TEMP.        -1.470E-02   AT NODE        250   DOF 11
   INSTANCE: ELASTIC-PLASTIC-PLATE-1                                                         
 LARGEST CORRECTION TO TEMP.       -1.382E-03   AT NODE        180   DOF 11
   INSTANCE: ELASTIC-PLASTIC-PLATE-1                                                         
          THERE IS ZERO HEAT FLUX EVERYWHERE
 

 ***WARNING: THERE IS ZERO HEAT FLUX EVERYWHERE IN THE MODEL BASED ON THE 
             DEFAULT CRITERION. PLEASE CHECK THE VALUE OF THE AVERAGE HEAT FLUX 
             DURING THE CURRENT ITERATION TO VERIFY THAT THE HEAT FLUX IS SMALL 
             ENOUGH TO BE TREATED AS ZERO. IF NOT, PLEASE USE THE SOLUTION 
             CONTROLS TO RESET THE CRITERION FOR ZERO HEAT FLUX.

 COMPATIBILITY ERRORS:
    TYPE                NUMBER EXCEEDING TOLERANCE  MAXIMUM ERROR        IN ELEMENT
 VOLUMETRIC                          0               -3.434E-12               3306
   INSTANCE: ELASTIC-PLASTIC-PLATE-1                                                         

 ITERATION SUMMARY FOR THE INCREMENT:   1 TOTAL ITERATIONS, OF WHICH
   0 ARE SEVERE DISCONTINUITY ITERATIONS AND  1 ARE EQUILIBRIUM ITERATIONS.

 TIME INCREMENT COMPLETED  1.000E+03,  FRACTION OF STEP COMPLETED  0.970    
 STEP TIME COMPLETED       9.700E+04,  TOTAL TIME COMPLETED        9.700E+04


  INCREMENT    98 STARTS. ATTEMPT NUMBER  1, TIME INCREMENT  1.000E+03
 
	UNSYMMETRIC NEW DIRECT SPARSE SOLVER RUNNING ON
 	1 HOST x 1 MPI RANK PER HOST x 4 THREADS PER RANK
        NUMBER OF EQUATIONS:  45663
        NUMBER OF RHS:        1
        NUMBER OF FLOPS:      1.963e+09
        SOLVER ELAPSED TIME:  37ms

               CONVERGENCE CHECKS FOR EQUILIBRIUM ITERATION     1


 AVERAGE FORCE                      2.423E+04   TIME AVG. FORCE       1.916E+04
 LARGEST SCALED RESIDUAL FORCE      -4.21       AT NODE       5814   DOF  1
   INSTANCE: ELASTIC-PLASTIC-PLATE-1                                                         
  CORRESPONDING RESIDUAL FORCE      -4.21    
 LARGEST INCREMENT OF DISP.         6.206E-06   AT NODE          5   DOF  2
   INSTANCE: ELASTIC-PLASTIC-PLATE-1                                                         
 LARGEST CORRECTION TO DISP.        2.309E-09   AT NODE      11800   DOF  1
   INSTANCE: ELASTIC-PLASTIC-PLATE-1                                                         
          THE FORCE     EQUILIBRIUM EQUATIONS HAVE CONVERGED

 AVERAGE HEAT FLUX                  1.479E-12   TIME AVG. HEAT FLUX   1.000E-02
 LARGEST RESIDUAL HEAT FLUX         8.388E-13   AT NODE       3038   DOF 11
   INSTANCE: ELASTIC-PLASTIC-PLATE-1                                                         
 LARGEST INCREMENT OF TEMP.        -1.454E-02   AT NODE        250   DOF 11
   INSTANCE: ELASTIC-PLASTIC-PLATE-1                                                         
 LARGEST CORRECTION TO TEMP.        2.592E-03   AT NODE       4497   DOF 11
   INSTANCE: ELASTIC-PLASTIC-PLATE-1                                                         
          THERE IS ZERO HEAT FLUX EVERYWHERE
 

 ***WARNING: THERE IS ZERO HEAT FLUX EVERYWHERE IN THE MODEL BASED ON THE 
             DEFAULT CRITERION. PLEASE CHECK THE VALUE OF THE AVERAGE HEAT FLUX 
             DURING THE CURRENT ITERATION TO VERIFY THAT THE HEAT FLUX IS SMALL 
             ENOUGH TO BE TREATED AS ZERO. IF NOT, PLEASE USE THE SOLUTION 
             CONTROLS TO RESET THE CRITERION FOR ZERO HEAT FLUX.

 COMPATIBILITY ERRORS:
    TYPE                NUMBER EXCEEDING TOLERANCE  MAXIMUM ERROR        IN ELEMENT
 VOLUMETRIC                          0               -3.545E-12               3306
   INSTANCE: ELASTIC-PLASTIC-PLATE-1                                                         

 ITERATION SUMMARY FOR THE INCREMENT:   1 TOTAL ITERATIONS, OF WHICH
   0 ARE SEVERE DISCONTINUITY ITERATIONS AND  1 ARE EQUILIBRIUM ITERATIONS.

 TIME INCREMENT COMPLETED  1.000E+03,  FRACTION OF STEP COMPLETED  0.980    
 STEP TIME COMPLETED       9.800E+04,  TOTAL TIME COMPLETED        9.800E+04


  INCREMENT    99 STARTS. ATTEMPT NUMBER  1, TIME INCREMENT  1.000E+03
 
	UNSYMMETRIC NEW DIRECT SPARSE SOLVER RUNNING ON
 	1 HOST x 1 MPI RANK PER HOST x 4 THREADS PER RANK
        NUMBER OF EQUATIONS:  45663
        NUMBER OF RHS:        1
        NUMBER OF FLOPS:      1.963e+09
        SOLVER ELAPSED TIME:  38ms

               CONVERGENCE CHECKS FOR EQUILIBRIUM ITERATION     1


 AVERAGE FORCE                      2.429E+04   TIME AVG. FORCE       1.921E+04
 LARGEST SCALED RESIDUAL FORCE      0.839       AT NODE       6153   DOF  1
   INSTANCE: ELASTIC-PLASTIC-PLATE-1                                                         
  CORRESPONDING RESIDUAL FORCE      0.839    
 LARGEST INCREMENT OF DISP.         6.205E-06   AT NODE          5   DOF  2
   INSTANCE: ELASTIC-PLASTIC-PLATE-1                                                         
 LARGEST CORRECTION TO DISP.        2.716E-09   AT NODE        265   DOF  1
   INSTANCE: ELASTIC-PLASTIC-PLATE-1                                                         
          THE FORCE     EQUILIBRIUM EQUATIONS HAVE CONVERGED

 AVERAGE HEAT FLUX                  1.481E-12   TIME AVG. HEAT FLUX   1.000E-02
 LARGEST RESIDUAL HEAT FLUX         8.375E-13   AT NODE       3038   DOF 11
   INSTANCE: ELASTIC-PLASTIC-PLATE-1                                                         
 LARGEST INCREMENT OF TEMP.        -1.455E-02   AT NODE        250   DOF 11
   INSTANCE: ELASTIC-PLASTIC-PLATE-1                                                         
 LARGEST CORRECTION TO TEMP.       -1.339E-03   AT NODE        232   DOF 11
   INSTANCE: ELASTIC-PLASTIC-PLATE-1                                                         
          THERE IS ZERO HEAT FLUX EVERYWHERE
 

 ***WARNING: THERE IS ZERO HEAT FLUX EVERYWHERE IN THE MODEL BASED ON THE 
             DEFAULT CRITERION. PLEASE CHECK THE VALUE OF THE AVERAGE HEAT FLUX 
             DURING THE CURRENT ITERATION TO VERIFY THAT THE HEAT FLUX IS SMALL 
             ENOUGH TO BE TREATED AS ZERO. IF NOT, PLEASE USE THE SOLUTION 
             CONTROLS TO RESET THE CRITERION FOR ZERO HEAT FLUX.

 COMPATIBILITY ERRORS:
    TYPE                NUMBER EXCEEDING TOLERANCE  MAXIMUM ERROR        IN ELEMENT
 VOLUMETRIC                          0               -3.343E-12               3306
   INSTANCE: ELASTIC-PLASTIC-PLATE-1                                                         

 ITERATION SUMMARY FOR THE INCREMENT:   1 TOTAL ITERATIONS, OF WHICH
   0 ARE SEVERE DISCONTINUITY ITERATIONS AND  1 ARE EQUILIBRIUM ITERATIONS.

 TIME INCREMENT COMPLETED  1.000E+03,  FRACTION OF STEP COMPLETED  0.990    
 STEP TIME COMPLETED       9.900E+04,  TOTAL TIME COMPLETED        9.900E+04


  INCREMENT   100 STARTS. ATTEMPT NUMBER  1, TIME INCREMENT  1.000E+03
 
	UNSYMMETRIC NEW DIRECT SPARSE SOLVER RUNNING ON
 	1 HOST x 1 MPI RANK PER HOST x 4 THREADS PER RANK
        NUMBER OF EQUATIONS:  45663
        NUMBER OF RHS:        1
        NUMBER OF FLOPS:      1.966e+09
        SOLVER ELAPSED TIME:  39ms

               CONVERGENCE CHECKS FOR EQUILIBRIUM ITERATION     1


 AVERAGE FORCE                      2.435E+04   TIME AVG. FORCE       1.927E+04
 LARGEST SCALED RESIDUAL FORCE     -0.262       AT NODE      11138   DOF  1
   INSTANCE: ELASTIC-PLASTIC-PLATE-1                                                         
  CORRESPONDING RESIDUAL FORCE     -0.262    
 LARGEST INCREMENT OF DISP.         6.205E-06   AT NODE          5   DOF  2
   INSTANCE: ELASTIC-PLASTIC-PLATE-1                                                         
 LARGEST CORRECTION TO DISP.        2.896E-09   AT NODE        265   DOF  1
   INSTANCE: ELASTIC-PLASTIC-PLATE-1                                                         
          THE FORCE     EQUILIBRIUM EQUATIONS HAVE CONVERGED

 AVERAGE HEAT FLUX                  1.483E-12   TIME AVG. HEAT FLUX   1.000E-02
 LARGEST RESIDUAL HEAT FLUX         8.356E-13   AT NODE       3038   DOF 11
   INSTANCE: ELASTIC-PLASTIC-PLATE-1                                                         
 LARGEST INCREMENT OF TEMP.        -1.440E-02   AT NODE        250   DOF 11
   INSTANCE: ELASTIC-PLASTIC-PLATE-1                                                         
 LARGEST CORRECTION TO TEMP.        3.352E-03   AT NODE       3261   DOF 11
   INSTANCE: ELASTIC-PLASTIC-PLATE-1                                                         
          THERE IS ZERO HEAT FLUX EVERYWHERE
 

 ***WARNING: THERE IS ZERO HEAT FLUX EVERYWHERE IN THE MODEL BASED ON THE 
             DEFAULT CRITERION. PLEASE CHECK THE VALUE OF THE AVERAGE HEAT FLUX 
             DURING THE CURRENT ITERATION TO VERIFY THAT THE HEAT FLUX IS SMALL 
             ENOUGH TO BE TREATED AS ZERO. IF NOT, PLEASE USE THE SOLUTION 
             CONTROLS TO RESET THE CRITERION FOR ZERO HEAT FLUX.

 COMPATIBILITY ERRORS:
    TYPE                NUMBER EXCEEDING TOLERANCE  MAXIMUM ERROR        IN ELEMENT
 VOLUMETRIC                          0               -3.246E-12               3306
   INSTANCE: ELASTIC-PLASTIC-PLATE-1                                                         

 ITERATION SUMMARY FOR THE INCREMENT:   1 TOTAL ITERATIONS, OF WHICH
   0 ARE SEVERE DISCONTINUITY ITERATIONS AND  1 ARE EQUILIBRIUM ITERATIONS.

 TIME INCREMENT COMPLETED  1.000E+03,  FRACTION OF STEP COMPLETED   1.00    
 STEP TIME COMPLETED       1.000E+05,  TOTAL TIME COMPLETED        1.000E+05


          THE ANALYSIS HAS BEEN COMPLETED



     ANALYSIS SUMMARY:
     TOTAL OF        100  INCREMENTS
                       0  CUTBACKS IN AUTOMATIC INCREMENTATION
                     122  ITERATIONS INCLUDING CONTACT ITERATIONS IF PRESENT
                     122  PASSES THROUGH THE EQUATION SOLVER OF WHICH 
                     122  INVOLVE MATRIX DECOMPOSITION, INCLUDING
                       0  DECOMPOSITION(S) OF THE MASS MATRIX
                       1  REORDERING OF EQUATIONS TO MINIMIZE WAVEFRONT
                       0  ADDITIONAL RESIDUAL EVALUATIONS FOR LINE SEARCHES
                       0  ADDITIONAL OPERATOR EVALUATIONS FOR LINE SEARCHES
                       0  WARNING MESSAGES DURING USER INPUT PROCESSING
                     122  WARNING MESSAGES DURING ANALYSIS
                       0  ANALYSIS WARNINGS ARE NUMERICAL PROBLEM MESSAGES
                       0  ANALYSIS WARNINGS ARE NEGATIVE EIGENVALUE MESSAGES
                       0  ERROR MESSAGES



     JOB TIME SUMMARY
       USER TIME (SEC)      =      76.    
       SYSTEM TIME (SEC)    =      8.9    
       TOTAL CPU TIME (SEC) =      85.    
       WALLCLOCK TIME (SEC) =           44
       MEMORY PEAK (GB)     =            0
