1

   Abaqus 2023.HF4                                  Date 01-Jul-2024   Time 12:49:28
   For use by AALTO UNIVERSITY under license from Dassault Systemes or its subsidiary.

                                                                                 
                                                                                 
 STEP    1     INCREMENT     1     STEP TIME    0.00    


                        S T E P       1     C O U P L E D - T E M P E R A T U R E - D I S P L A C E M E N T   A N A L Y S I S


                                                                                          

     AUTOMATIC TIME CONTROL WITH -
          A SUGGESTED INITIAL TIME INCREMENT OF                 10.0    
          AND A TOTAL TIME PERIOD OF                           1.000E+03
          THE MINIMUM TIME INCREMENT ALLOWED IS                1.000E-02
          THE MAXIMUM TIME INCREMENT ALLOWED IS                 10.0    

          CREEP AND SWELLING EFFECTS ARE OMITTED IN THIS STEP

     THE SIZE OF THE TIME INCREMENT IS CONTROLLED BY -
          THE TEMPERATURE CHANGE PER INCREMENT NOT EXCEEDING            1.00    
          THE RATE DEPENDENCY WILL BE CONSIDERED IN THIS STEP

          CREEP AND SWELLING EFFECTS WILL BE IGNORED.

 CONVERGENCE TOLERANCE PARAMETERS FOR FORCE    
     CRITERION FOR RESIDUAL FORCE     FOR A NONLINEAR PROBLEM          5.000E-03
     CRITERION FOR DISP.    CORRECTION IN A NONLINEAR PROBLEM          1.000E-02
     INITIAL VALUE OF TIME AVERAGE FORCE                               1.000E-02
     AVERAGE FORCE     IS TIME AVERAGE FORCE    
     ALTERNATE CRIT. FOR RESIDUAL FORCE     FOR A NONLINEAR PROBLEM    2.000E-02
     CRITERION FOR ZERO FORCE     RELATIVE TO TIME AVRG. FORCE         1.000E-05
     CRITERION FOR RESIDUAL FORCE     WHEN THERE IS ZERO FLUX          1.000E-05
     CRITERION FOR DISP.    CORRECTION WHEN THERE IS ZERO FLUX         1.000E-03
     CRITERION FOR RESIDUAL FORCE     FOR A LINEAR INCREMENT           1.000E-08
     FIELD CONVERSION RATIO                                             1.00    
     CRITERION FOR ZERO FORCE     REL. TO TIME AVRG. MAX. FORCE        1.000E-05
     CRITERION FOR ZERO DISP.    RELATIVE TO CHARACTERISTIC LENGTH     1.000E-08

 CONVERGENCE TOLERANCE PARAMETERS FOR HEAT FLUX
     CRITERION FOR RESIDUAL HEAT FLUX FOR A NONLINEAR PROBLEM          5.000E-03
     CRITERION FOR TEMP.    CORRECTION IN A NONLINEAR PROBLEM          1.000E-02
     INITIAL VALUE OF TIME AVERAGE HEAT FLUX                           1.000E-02
     AVERAGE HEAT FLUX IS TIME AVERAGE HEAT FLUX
     ALTERNATE CRIT. FOR RESIDUAL HEAT FLUX FOR A NONLINEAR PROBLEM    2.000E-02
     CRITERION FOR ZERO HEAT FLUX RELATIVE TO TIME AVRG. HEAT FLUX     1.000E-05
     CRITERION FOR RESIDUAL HEAT FLUX WHEN THERE IS ZERO FLUX          1.000E-05
     CRITERION FOR TEMP.    CORRECTION WHEN THERE IS ZERO FLUX         1.000E-03
     CRITERION FOR RESIDUAL HEAT FLUX FOR A LINEAR INCREMENT           1.000E-08
     FIELD CONVERSION RATIO                                             1.00    
     CRITERION FOR ZERO HEAT FLUX REL. TO TIME AVRG. MAX. HEAT FLUX    1.000E-05

     VOLUMETRIC STRAIN COMPATIBILITY TOLERANCE FOR HYBRID SOLIDS       1.000E-05
     AXIAL STRAIN COMPATIBILITY TOLERANCE FOR HYBRID BEAMS             1.000E-05
     TRANS. SHEAR STRAIN COMPATIBILITY TOLERANCE FOR HYBRID BEAMS      1.000E-05
     SOFT CONTACT CONSTRAINT COMPATIBILITY TOLERANCE FOR P>P0          5.000E-03
     SOFT CONTACT CONSTRAINT COMPATIBILITY TOLERANCE FOR P=0.0         0.100    
     CONTACT FORCE ERROR TOLERANCE FOR CONVERT SDI=YES                 1.00    
     DISPLACEMENT COMPATIBILITY TOLERANCE FOR DCOUP ELEMENTS           1.000E-05
     ROTATION COMPATIBILITY TOLERANCE FOR DCOUP ELEMENTS               1.000E-05

 EQUILIBRIUM WILL BE CHECKED FOR SEVERE DISCONTINUITY ITERATIONS

 TIME INCREMENTATION CONTROL PARAMETERS:
     FIRST EQUILIBRIUM ITERATION FOR CONSECUTIVE DIVERGENCE CHECK              4
     EQUILIBRIUM ITERATION AT WHICH LOG. CONVERGENCE RATE CHECK BEGINS         8
     EQUILIBRIUM ITERATION AFTER WHICH ALTERNATE RESIDUAL IS USED              9
     MAXIMUM EQUILIBRIUM ITERATIONS ALLOWED                                   16
     EQUILIBRIUM ITERATION COUNT FOR CUT-BACK IN NEXT INCREMENT               10
     MAXIMUM EQUILIB. ITERS IN TWO INCREMENTS FOR TIME INCREMENT INCREASE      4
     MAXIMUM ITERATIONS FOR SEVERE DISCONTINUITIES                            50
     MAXIMUM ATTEMPTS ALLOWED IN AN INCREMENT                                  5
     MAXIMUM DISCON. ITERS IN TWO INCREMENTS FOR TIME INCREMENT INCREASE      50
     MAXIMUM CONTACT AUGMENTATIONS FOR *SURFACE BEHAVIOR,AUGMENTED LAGRANGE   50
     CONSECUTIVE INCS MEETING TIME INTEG. TOL. FOR TIME INC. INCREASE          3
     CUT-BACK FACTOR AFTER DIVERGENCE                                 0.2500    
     CUT-BACK FACTOR FOR TOO SLOW CONVERGENCE                         0.5000    
     CUT-BACK FACTOR AFTER TOO MANY EQUILIBRIUM ITERATIONS            0.7500    
     CUT-BACK FACTOR AFTER TOO MANY SEVERE DISCONTINUITY ITERATIONS   0.2500    
     CUT-BACK FACTOR AFTER PROBLEMS IN ELEMENT ASSEMBLY               0.2500    
     INCREASE FACTOR AFTER TWO INCREMENTS THAT CONVERGE QUICKLY        1.500    
     MAX. TIME INCREMENT INCREASE FACTOR ALLOWED                       1.500    
     MAX. TIME INCREMENT INCREASE FACTOR ALLOWED (DYNAMICS)            1.250    
     MAX. TIME INCREMENT INCREASE FACTOR ALLOWED (DIFFUSION)           2.000    
     MINIMUM TIME INCREMENT RATIO FOR EXTRAPOLATION TO OCCUR          0.1000    
     CUT-BACK FACTOR WHEN TIME INTEGRATION ACCURACY TOL. EXCEEDED     0.8500    
     MAX. RATIO OF TIME INTEG. MEASURE TO TOL. FOR TIME INC. INCREASE 0.7500    
     INCREASE FACTOR FOR TIME INCREMENT WHEN POSSIBLE                 0.8000    
     MIN. TIME INC. INCREASE FACTOR IN LINEAR TRANSIENT PROBLEMS      0.9500    
     MAX. RATIO OF TIME INCREMENT TO STABILITY LIMIT                   1.000    
     FRACTION OF STABILITY LIMIT FOR NEW TIME INCREMENT               0.9500    
     TIME INCREMENT INCREASE FACTOR BEFORE A TIME POINT                1.000    
     GLOBAL STABILIZATION CONTROL IS NOT USED

          PRINT OF INCREMENT NUMBER, TIME, ETC., EVERY    1  INCREMENTS

     THE MAXIMUM NUMBER OF INCREMENTS IN THIS STEP IS                  100000

          LARGE DISPLACEMENT THEORY WILL BE USED

          UNSYMMETRIC MATRIX STORAGE AND SOLUTION WILL BE USED

     LINEAR EXTRAPOLATION WILL BE USED

     CHARACTERISTIC ELEMENT LENGTH     2.522E-04

     DETAILS REGARDING ACTUAL SOLUTION WAVEFRONT REQUESTED

     DETAILED OUTPUT OF DIAGNOSTICS TO DATABASE REQUESTED

     PRINT OF INCREMENT NUMBER, TIME, ETC., TO THE MESSAGE FILE EVERY     1  INCREMENTS

     ELEMENT OPERATIONS WILL BE CARRIED OUT IN PARALLEL USING   2 THREADS ON 1 DOMAIN

     PARALLEL CONTACT TRACKING ENABLED


     COLLECTING MODEL CONSTRAINT INFORMATION FOR OVERCONSTRAINT CHECKS

     COLLECTING STEP CONSTRAINT INFORMATION FOR OVERCONSTRAINT CHECKS


  INCREMENT     1 STARTS. ATTEMPT NUMBER  1, TIME INCREMENT   10.0    
 
     INITIAL ELEMENT LOAD BALANCE
            DOMAIN    1     THREAD    NUMBER OF ELEMENTS
                              1            27208
                              2            27488
 
	UNSYMMETRIC NEW DIRECT SPARSE SOLVER RUNNING ON
 	1 HOST x 1 MPI RANK PER HOST x 2 THREADS PER RANK
        NUMBER OF EQUATIONS:  258264
        NUMBER OF RHS:        1
        NUMBER OF FLOPS:      6.107e+11
        SOLVER ELAPSED TIME:  7.0s

               CONVERGENCE CHECKS FOR EQUILIBRIUM ITERATION     1


 AVERAGE FORCE                      0.102       TIME AVG. FORCE       0.102    
 LARGEST SCALED RESIDUAL FORCE      1.149E-02   AT NODE      10553   DOF  3
   INSTANCE: SH115-M-1                                                                       
  CORRESPONDING RESIDUAL FORCE      1.149E-02
 LARGEST INCREMENT OF DISP.         2.100E-05   AT NODE       2871   DOF  2
   INSTANCE: SH115-M-1                                                                       
 LARGEST CORRECTION TO DISP.        2.100E-05   AT NODE       2871   DOF  2
   INSTANCE: SH115-M-1                                                                       
          FORCE     EQUILIBRIUM NOT ACHIEVED WITHIN TOLERANCE.

 AVERAGE HEAT FLUX                   0.00       TIME AVG. HEAT FLUX   1.000E-02
 ALL HEAT FLUX RESIDUALS ARE ZERO
 ALL TEMP.    INCREMENTS ARE ZERO
 ALL CORRECTION TO TEMP.    ARE ZERO
          THERE IS ZERO HEAT FLUX EVERYWHERE
 
	UNSYMMETRIC NEW DIRECT SPARSE SOLVER RUNNING ON
 	1 HOST x 1 MPI RANK PER HOST x 2 THREADS PER RANK
        NUMBER OF EQUATIONS:  258264
        NUMBER OF RHS:        1
        NUMBER OF FLOPS:      6.107e+11
        SOLVER ELAPSED TIME:  7.1s

               CONVERGENCE CHECKS FOR EQUILIBRIUM ITERATION     2


 AVERAGE FORCE                      0.102       TIME AVG. FORCE       0.102    
 LARGEST SCALED RESIDUAL FORCE      6.566E-06   AT NODE      13848   DOF  1
   INSTANCE: SH115-M-1                                                                       
  CORRESPONDING RESIDUAL FORCE      6.566E-06
 LARGEST INCREMENT OF DISP.         2.100E-05   AT NODE       2871   DOF  2
   INSTANCE: SH115-M-1                                                                       
 LARGEST CORRECTION TO DISP.       -8.445E-09   AT NODE      20522   DOF  1
   INSTANCE: SH115-M-1                                                                       
          THE FORCE     EQUILIBRIUM EQUATIONS HAVE CONVERGED

 AVERAGE HEAT FLUX                   0.00       TIME AVG. HEAT FLUX   1.000E-02
 ALL HEAT FLUX RESIDUALS ARE ZERO
 ALL TEMP.    INCREMENTS ARE ZERO
 ALL CORRECTION TO TEMP.    ARE ZERO
          THERE IS ZERO HEAT FLUX EVERYWHERE

 MAXIMUM NON-PRESCRIBED INCREMENT IN TEMPERATURE IS    0.00    

 ITERATION SUMMARY FOR THE INCREMENT:   2 TOTAL ITERATIONS, OF WHICH
   0 ARE SEVERE DISCONTINUITY ITERATIONS AND  2 ARE EQUILIBRIUM ITERATIONS.

 TIME INCREMENT COMPLETED   10.0    ,  FRACTION OF STEP COMPLETED  1.000E-02
 STEP TIME COMPLETED        10.0    ,  TOTAL TIME COMPLETED         10.0    


  INCREMENT     2 STARTS. ATTEMPT NUMBER  1, TIME INCREMENT   10.0    
 
	UNSYMMETRIC NEW DIRECT SPARSE SOLVER RUNNING ON
 	1 HOST x 1 MPI RANK PER HOST x 2 THREADS PER RANK
        NUMBER OF EQUATIONS:  258264
        NUMBER OF RHS:        1
        NUMBER OF FLOPS:      6.107e+11
        SOLVER ELAPSED TIME:  8.0s

               CONVERGENCE CHECKS FOR EQUILIBRIUM ITERATION     1


 AVERAGE FORCE                      0.206       TIME AVG. FORCE       0.154    
 LARGEST SCALED RESIDUAL FORCE      8.929E-06   AT NODE      13846   DOF  2
   INSTANCE: SH115-M-1                                                                       
  CORRESPONDING RESIDUAL FORCE      8.929E-06
 LARGEST INCREMENT OF DISP.         2.100E-05   AT NODE       2871   DOF  2
   INSTANCE: SH115-M-1                                                                       
 LARGEST CORRECTION TO DISP.       -1.785E-08   AT NODE      20522   DOF  1
   INSTANCE: SH115-M-1                                                                       
          THE FORCE     EQUILIBRIUM EQUATIONS HAVE CONVERGED

 AVERAGE HEAT FLUX                   0.00       TIME AVG. HEAT FLUX   1.000E-02
 ALL HEAT FLUX RESIDUALS ARE ZERO
 ALL TEMP.    INCREMENTS ARE ZERO
 ALL CORRECTION TO TEMP.    ARE ZERO
          THERE IS ZERO HEAT FLUX EVERYWHERE

 MAXIMUM NON-PRESCRIBED INCREMENT IN TEMPERATURE IS    0.00    

 ITERATION SUMMARY FOR THE INCREMENT:   1 TOTAL ITERATIONS, OF WHICH
   0 ARE SEVERE DISCONTINUITY ITERATIONS AND  1 ARE EQUILIBRIUM ITERATIONS.

 TIME INCREMENT COMPLETED   10.0    ,  FRACTION OF STEP COMPLETED  2.000E-02
 STEP TIME COMPLETED        20.0    ,  TOTAL TIME COMPLETED         20.0    


  INCREMENT     3 STARTS. ATTEMPT NUMBER  1, TIME INCREMENT   10.0    
 
	UNSYMMETRIC NEW DIRECT SPARSE SOLVER RUNNING ON
 	1 HOST x 1 MPI RANK PER HOST x 2 THREADS PER RANK
        NUMBER OF EQUATIONS:  258264
        NUMBER OF RHS:        1
        NUMBER OF FLOPS:      6.107e+11
        SOLVER ELAPSED TIME:  7.2s

               CONVERGENCE CHECKS FOR EQUILIBRIUM ITERATION     1


 AVERAGE FORCE                      0.310       TIME AVG. FORCE       0.206    
 LARGEST SCALED RESIDUAL FORCE      8.940E-06   AT NODE      13846   DOF  2
   INSTANCE: SH115-M-1                                                                       
  CORRESPONDING RESIDUAL FORCE      8.940E-06
 LARGEST INCREMENT OF DISP.         2.100E-05   AT NODE       2871   DOF  2
   INSTANCE: SH115-M-1                                                                       
 LARGEST CORRECTION TO DISP.       -1.764E-08   AT NODE      20522   DOF  1
   INSTANCE: SH115-M-1                                                                       
          THE FORCE     EQUILIBRIUM EQUATIONS HAVE CONVERGED

 AVERAGE HEAT FLUX                   0.00       TIME AVG. HEAT FLUX   1.000E-02
 ALL HEAT FLUX RESIDUALS ARE ZERO
 ALL TEMP.    INCREMENTS ARE ZERO
 ALL CORRECTION TO TEMP.    ARE ZERO
          THERE IS ZERO HEAT FLUX EVERYWHERE

 MAXIMUM NON-PRESCRIBED INCREMENT IN TEMPERATURE IS    0.00    

 ITERATION SUMMARY FOR THE INCREMENT:   1 TOTAL ITERATIONS, OF WHICH
   0 ARE SEVERE DISCONTINUITY ITERATIONS AND  1 ARE EQUILIBRIUM ITERATIONS.

 TIME INCREMENT COMPLETED   10.0    ,  FRACTION OF STEP COMPLETED  3.000E-02
 STEP TIME COMPLETED        30.0    ,  TOTAL TIME COMPLETED         30.0    


  INCREMENT     4 STARTS. ATTEMPT NUMBER  1, TIME INCREMENT   10.0    
 
	UNSYMMETRIC NEW DIRECT SPARSE SOLVER RUNNING ON
 	1 HOST x 1 MPI RANK PER HOST x 2 THREADS PER RANK
        NUMBER OF EQUATIONS:  258264
        NUMBER OF RHS:        1
        NUMBER OF FLOPS:      6.107e+11
        SOLVER ELAPSED TIME:  6.9s

               CONVERGENCE CHECKS FOR EQUILIBRIUM ITERATION     1


 AVERAGE FORCE                      0.413       TIME AVG. FORCE       0.258    
 LARGEST SCALED RESIDUAL FORCE     -1.880E-02   AT NODE      43370   DOF  2
   INSTANCE: SH115-M-1                                                                       
  CORRESPONDING RESIDUAL FORCE     -1.880E-02
 LARGEST INCREMENT OF DISP.         2.100E-05   AT NODE       2871   DOF  2
   INSTANCE: SH115-M-1                                                                       
 LARGEST CORRECTION TO DISP.       -3.683E-08   AT NODE      20069   DOF  3
   INSTANCE: SH115-M-1                                                                       
          FORCE     EQUILIBRIUM NOT ACHIEVED WITHIN TOLERANCE.

 AVERAGE HEAT FLUX                   0.00       TIME AVG. HEAT FLUX   1.000E-02
 ALL HEAT FLUX RESIDUALS ARE ZERO
 ALL TEMP.    INCREMENTS ARE ZERO
 ALL CORRECTION TO TEMP.    ARE ZERO
          THERE IS ZERO HEAT FLUX EVERYWHERE
 
	UNSYMMETRIC NEW DIRECT SPARSE SOLVER RUNNING ON
 	1 HOST x 1 MPI RANK PER HOST x 2 THREADS PER RANK
        NUMBER OF EQUATIONS:  258264
        NUMBER OF RHS:        1
        NUMBER OF FLOPS:      6.107e+11
        SOLVER ELAPSED TIME:  7.5s

               CONVERGENCE CHECKS FOR EQUILIBRIUM ITERATION     2


 AVERAGE FORCE                      0.413       TIME AVG. FORCE       0.258    
 LARGEST SCALED RESIDUAL FORCE     -1.021E-04   AT NODE      37721   DOF  2
   INSTANCE: SH115-M-1                                                                       
  CORRESPONDING RESIDUAL FORCE     -1.021E-04
 LARGEST INCREMENT OF DISP.         2.100E-05   AT NODE       2871   DOF  2
   INSTANCE: SH115-M-1                                                                       
 LARGEST CORRECTION TO DISP.       -6.179E-10   AT NODE      43370   DOF  2
   INSTANCE: SH115-M-1                                                                       
          THE FORCE     EQUILIBRIUM EQUATIONS HAVE CONVERGED

 AVERAGE HEAT FLUX                   0.00       TIME AVG. HEAT FLUX   1.000E-02
 ALL HEAT FLUX RESIDUALS ARE ZERO
 ALL TEMP.    INCREMENTS ARE ZERO
 ALL CORRECTION TO TEMP.    ARE ZERO
          THERE IS ZERO HEAT FLUX EVERYWHERE

 MAXIMUM NON-PRESCRIBED INCREMENT IN TEMPERATURE IS    0.00    

 ITERATION SUMMARY FOR THE INCREMENT:   2 TOTAL ITERATIONS, OF WHICH
   0 ARE SEVERE DISCONTINUITY ITERATIONS AND  2 ARE EQUILIBRIUM ITERATIONS.

 TIME INCREMENT COMPLETED   10.0    ,  FRACTION OF STEP COMPLETED  4.000E-02
 STEP TIME COMPLETED        40.0    ,  TOTAL TIME COMPLETED         40.0    


  INCREMENT     5 STARTS. ATTEMPT NUMBER  1, TIME INCREMENT   10.0    
 
	UNSYMMETRIC NEW DIRECT SPARSE SOLVER RUNNING ON
 	1 HOST x 1 MPI RANK PER HOST x 2 THREADS PER RANK
        NUMBER OF EQUATIONS:  258264
        NUMBER OF RHS:        1
        NUMBER OF FLOPS:      6.107e+11
        SOLVER ELAPSED TIME:  7.1s

               CONVERGENCE CHECKS FOR EQUILIBRIUM ITERATION     1


 AVERAGE FORCE                      0.515       TIME AVG. FORCE       0.309    
 LARGEST SCALED RESIDUAL FORCE     -7.505E-02   AT NODE      37720   DOF  2
   INSTANCE: SH115-M-1                                                                       
  CORRESPONDING RESIDUAL FORCE     -7.505E-02
 LARGEST INCREMENT OF DISP.         2.100E-05   AT NODE       2871   DOF  2
   INSTANCE: SH115-M-1                                                                       
 LARGEST CORRECTION TO DISP.        1.872E-07   AT NODE      18614   DOF  2
   INSTANCE: SH115-M-1                                                                       
          FORCE     EQUILIBRIUM NOT ACHIEVED WITHIN TOLERANCE.

 AVERAGE HEAT FLUX                   0.00       TIME AVG. HEAT FLUX   1.000E-02
 ALL HEAT FLUX RESIDUALS ARE ZERO
 ALL TEMP.    INCREMENTS ARE ZERO
 ALL CORRECTION TO TEMP.    ARE ZERO
          THERE IS ZERO HEAT FLUX EVERYWHERE
 
	UNSYMMETRIC NEW DIRECT SPARSE SOLVER RUNNING ON
 	1 HOST x 1 MPI RANK PER HOST x 2 THREADS PER RANK
        NUMBER OF EQUATIONS:  258264
        NUMBER OF RHS:        1
        NUMBER OF FLOPS:      6.107e+11
        SOLVER ELAPSED TIME:  7.3s

               CONVERGENCE CHECKS FOR EQUILIBRIUM ITERATION     2


 AVERAGE FORCE                      0.515       TIME AVG. FORCE       0.309    
 LARGEST SCALED RESIDUAL FORCE     -2.557E-03   AT NODE      59817   DOF  2
   INSTANCE: SH115-M-1                                                                       
  CORRESPONDING RESIDUAL FORCE     -2.557E-03
 LARGEST INCREMENT OF DISP.         2.100E-05   AT NODE       2871   DOF  2
   INSTANCE: SH115-M-1                                                                       
 LARGEST CORRECTION TO DISP.        1.455E-08   AT NODE      19738   DOF  2
   INSTANCE: SH115-M-1                                                                       
          FORCE     EQUILIBRIUM NOT ACHIEVED WITHIN TOLERANCE.

 AVERAGE HEAT FLUX                   0.00       TIME AVG. HEAT FLUX   1.000E-02
 ALL HEAT FLUX RESIDUALS ARE ZERO
 ALL TEMP.    INCREMENTS ARE ZERO
 ALL CORRECTION TO TEMP.    ARE ZERO
          THERE IS ZERO HEAT FLUX EVERYWHERE
 
	UNSYMMETRIC NEW DIRECT SPARSE SOLVER RUNNING ON
 	1 HOST x 1 MPI RANK PER HOST x 2 THREADS PER RANK
        NUMBER OF EQUATIONS:  258264
        NUMBER OF RHS:        1
        NUMBER OF FLOPS:      6.107e+11
        SOLVER ELAPSED TIME:  7.4s

               CONVERGENCE CHECKS FOR EQUILIBRIUM ITERATION     3


 AVERAGE FORCE                      0.515       TIME AVG. FORCE       0.309    
 LARGEST SCALED RESIDUAL FORCE     -3.247E-06   AT NODE      42827   DOF  1
   INSTANCE: SH115-M-1                                                                       
  CORRESPONDING RESIDUAL FORCE     -3.247E-06
 LARGEST INCREMENT OF DISP.         2.100E-05   AT NODE       2871   DOF  2
   INSTANCE: SH115-M-1                                                                       
 LARGEST CORRECTION TO DISP.       -1.136E-10   AT NODE      42827   DOF  2
   INSTANCE: SH115-M-1                                                                       
          THE FORCE     EQUILIBRIUM EQUATIONS HAVE CONVERGED

 AVERAGE HEAT FLUX                   0.00       TIME AVG. HEAT FLUX   1.000E-02
 ALL HEAT FLUX RESIDUALS ARE ZERO
 ALL TEMP.    INCREMENTS ARE ZERO
 ALL CORRECTION TO TEMP.    ARE ZERO
          THERE IS ZERO HEAT FLUX EVERYWHERE

 MAXIMUM NON-PRESCRIBED INCREMENT IN TEMPERATURE IS    0.00    

 ITERATION SUMMARY FOR THE INCREMENT:   3 TOTAL ITERATIONS, OF WHICH
   0 ARE SEVERE DISCONTINUITY ITERATIONS AND  3 ARE EQUILIBRIUM ITERATIONS.

 TIME INCREMENT COMPLETED   10.0    ,  FRACTION OF STEP COMPLETED  5.000E-02
 STEP TIME COMPLETED        50.0    ,  TOTAL TIME COMPLETED         50.0    


  INCREMENT     6 STARTS. ATTEMPT NUMBER  1, TIME INCREMENT   10.0    
 
	UNSYMMETRIC NEW DIRECT SPARSE SOLVER RUNNING ON
 	1 HOST x 1 MPI RANK PER HOST x 2 THREADS PER RANK
        NUMBER OF EQUATIONS:  258264
        NUMBER OF RHS:        1
        NUMBER OF FLOPS:      6.107e+11
        SOLVER ELAPSED TIME:  7.2s

               CONVERGENCE CHECKS FOR EQUILIBRIUM ITERATION     1


 AVERAGE FORCE                      0.616       TIME AVG. FORCE       0.360    
 LARGEST SCALED RESIDUAL FORCE     -0.114       AT NODE      55934   DOF  2
   INSTANCE: SH115-M-1                                                                       
  CORRESPONDING RESIDUAL FORCE     -0.114    
 LARGEST INCREMENT OF DISP.         2.100E-05   AT NODE       2871   DOF  2
   INSTANCE: SH115-M-1                                                                       
 LARGEST CORRECTION TO DISP.        3.068E-07   AT NODE      18617   DOF  2
   INSTANCE: SH115-M-1                                                                       
          FORCE     EQUILIBRIUM NOT ACHIEVED WITHIN TOLERANCE.

 AVERAGE HEAT FLUX                   0.00       TIME AVG. HEAT FLUX   1.000E-02
 ALL HEAT FLUX RESIDUALS ARE ZERO
 ALL TEMP.    INCREMENTS ARE ZERO
 ALL CORRECTION TO TEMP.    ARE ZERO
          THERE IS ZERO HEAT FLUX EVERYWHERE
 
	UNSYMMETRIC NEW DIRECT SPARSE SOLVER RUNNING ON
 	1 HOST x 1 MPI RANK PER HOST x 2 THREADS PER RANK
        NUMBER OF EQUATIONS:  258264
        NUMBER OF RHS:        1
        NUMBER OF FLOPS:      6.107e+11
        SOLVER ELAPSED TIME:  7.0s

               CONVERGENCE CHECKS FOR EQUILIBRIUM ITERATION     2


 AVERAGE FORCE                      0.616       TIME AVG. FORCE       0.360    
 LARGEST SCALED RESIDUAL FORCE      6.722E-03   AT NODE      56130   DOF  2
   INSTANCE: SH115-M-1                                                                       
  CORRESPONDING RESIDUAL FORCE      6.722E-03
 LARGEST INCREMENT OF DISP.         2.100E-05   AT NODE       2871   DOF  2
   INSTANCE: SH115-M-1                                                                       
 LARGEST CORRECTION TO DISP.        1.827E-08   AT NODE      57760   DOF  2
   INSTANCE: SH115-M-1                                                                       
          FORCE     EQUILIBRIUM NOT ACHIEVED WITHIN TOLERANCE.

 AVERAGE HEAT FLUX                   0.00       TIME AVG. HEAT FLUX   1.000E-02
 ALL HEAT FLUX RESIDUALS ARE ZERO
 ALL TEMP.    INCREMENTS ARE ZERO
 ALL CORRECTION TO TEMP.    ARE ZERO
          THERE IS ZERO HEAT FLUX EVERYWHERE
 
	UNSYMMETRIC NEW DIRECT SPARSE SOLVER RUNNING ON
 	1 HOST x 1 MPI RANK PER HOST x 2 THREADS PER RANK
        NUMBER OF EQUATIONS:  258264
        NUMBER OF RHS:        1
        NUMBER OF FLOPS:      6.107e+11
        SOLVER ELAPSED TIME:  6.9s

               CONVERGENCE CHECKS FOR EQUILIBRIUM ITERATION     3


 AVERAGE FORCE                      0.616       TIME AVG. FORCE       0.360    
 LARGEST SCALED RESIDUAL FORCE      4.197E-06   AT NODE      30675   DOF  2
   INSTANCE: SH115-M-1                                                                       
  CORRESPONDING RESIDUAL FORCE      4.197E-06
 LARGEST INCREMENT OF DISP.         2.100E-05   AT NODE       2871   DOF  2
   INSTANCE: SH115-M-1                                                                       
 LARGEST CORRECTION TO DISP.        2.339E-10   AT NODE      54075   DOF  2
   INSTANCE: SH115-M-1                                                                       
          THE FORCE     EQUILIBRIUM EQUATIONS HAVE CONVERGED

 AVERAGE HEAT FLUX                   0.00       TIME AVG. HEAT FLUX   1.000E-02
 ALL HEAT FLUX RESIDUALS ARE ZERO
 ALL TEMP.    INCREMENTS ARE ZERO
 ALL CORRECTION TO TEMP.    ARE ZERO
          THERE IS ZERO HEAT FLUX EVERYWHERE

 MAXIMUM NON-PRESCRIBED INCREMENT IN TEMPERATURE IS    0.00    

 ITERATION SUMMARY FOR THE INCREMENT:   3 TOTAL ITERATIONS, OF WHICH
   0 ARE SEVERE DISCONTINUITY ITERATIONS AND  3 ARE EQUILIBRIUM ITERATIONS.

 TIME INCREMENT COMPLETED   10.0    ,  FRACTION OF STEP COMPLETED  6.000E-02
 STEP TIME COMPLETED        60.0    ,  TOTAL TIME COMPLETED         60.0    


  INCREMENT     7 STARTS. ATTEMPT NUMBER  1, TIME INCREMENT   10.0    
 
	UNSYMMETRIC NEW DIRECT SPARSE SOLVER RUNNING ON
 	1 HOST x 1 MPI RANK PER HOST x 2 THREADS PER RANK
        NUMBER OF EQUATIONS:  258264
        NUMBER OF RHS:        1
        NUMBER OF FLOPS:      6.107e+11
        SOLVER ELAPSED TIME:  7.1s

               CONVERGENCE CHECKS FOR EQUILIBRIUM ITERATION     1


 AVERAGE FORCE                      0.715       TIME AVG. FORCE       0.411    
 LARGEST SCALED RESIDUAL FORCE      8.456E-02   AT NODE      28350   DOF  2
   INSTANCE: SH115-M-1                                                                       
  CORRESPONDING RESIDUAL FORCE      8.456E-02
 LARGEST INCREMENT OF DISP.         2.100E-05   AT NODE       2871   DOF  2
   INSTANCE: SH115-M-1                                                                       
 LARGEST CORRECTION TO DISP.        3.633E-07   AT NODE      18643   DOF  2
   INSTANCE: SH115-M-1                                                                       
          FORCE     EQUILIBRIUM NOT ACHIEVED WITHIN TOLERANCE.

 AVERAGE HEAT FLUX                   0.00       TIME AVG. HEAT FLUX   1.000E-02
 ALL HEAT FLUX RESIDUALS ARE ZERO
 ALL TEMP.    INCREMENTS ARE ZERO
 ALL CORRECTION TO TEMP.    ARE ZERO
          THERE IS ZERO HEAT FLUX EVERYWHERE
 
	UNSYMMETRIC NEW DIRECT SPARSE SOLVER RUNNING ON
 	1 HOST x 1 MPI RANK PER HOST x 2 THREADS PER RANK
        NUMBER OF EQUATIONS:  258264
        NUMBER OF RHS:        1
        NUMBER OF FLOPS:      6.107e+11
        SOLVER ELAPSED TIME:  7.0s

               CONVERGENCE CHECKS FOR EQUILIBRIUM ITERATION     2


 AVERAGE FORCE                      0.715       TIME AVG. FORCE       0.411    
 LARGEST SCALED RESIDUAL FORCE      1.198E-03   AT NODE      52203   DOF  2
   INSTANCE: SH115-M-1                                                                       
  CORRESPONDING RESIDUAL FORCE      1.198E-03
 LARGEST INCREMENT OF DISP.         2.100E-05   AT NODE       2871   DOF  2
   INSTANCE: SH115-M-1                                                                       
 LARGEST CORRECTION TO DISP.        1.606E-08   AT NODE      56181   DOF  2
   INSTANCE: SH115-M-1                                                                       
          THE FORCE     EQUILIBRIUM EQUATIONS HAVE CONVERGED

 AVERAGE HEAT FLUX                   0.00       TIME AVG. HEAT FLUX   1.000E-02
 ALL HEAT FLUX RESIDUALS ARE ZERO
 ALL TEMP.    INCREMENTS ARE ZERO
 ALL CORRECTION TO TEMP.    ARE ZERO
          THERE IS ZERO HEAT FLUX EVERYWHERE

 MAXIMUM NON-PRESCRIBED INCREMENT IN TEMPERATURE IS    0.00    

 ITERATION SUMMARY FOR THE INCREMENT:   2 TOTAL ITERATIONS, OF WHICH
   0 ARE SEVERE DISCONTINUITY ITERATIONS AND  2 ARE EQUILIBRIUM ITERATIONS.

 TIME INCREMENT COMPLETED   10.0    ,  FRACTION OF STEP COMPLETED  7.000E-02
 STEP TIME COMPLETED        70.0    ,  TOTAL TIME COMPLETED         70.0    


  INCREMENT     8 STARTS. ATTEMPT NUMBER  1, TIME INCREMENT   10.0    
 
	UNSYMMETRIC NEW DIRECT SPARSE SOLVER RUNNING ON
 	1 HOST x 1 MPI RANK PER HOST x 2 THREADS PER RANK
        NUMBER OF EQUATIONS:  258264
        NUMBER OF RHS:        1
        NUMBER OF FLOPS:      6.107e+11
        SOLVER ELAPSED TIME:  6.9s

               CONVERGENCE CHECKS FOR EQUILIBRIUM ITERATION     1


 AVERAGE FORCE                      0.810       TIME AVG. FORCE       0.461    
 LARGEST SCALED RESIDUAL FORCE     -0.113       AT NODE      33603   DOF  2
   INSTANCE: SH115-M-1                                                                       
  CORRESPONDING RESIDUAL FORCE     -0.113    
 LARGEST INCREMENT OF DISP.         2.100E-05   AT NODE       2871   DOF  2
   INSTANCE: SH115-M-1                                                                       
 LARGEST CORRECTION TO DISP.        3.791E-07   AT NODE      18619   DOF  2
   INSTANCE: SH115-M-1                                                                       
          FORCE     EQUILIBRIUM NOT ACHIEVED WITHIN TOLERANCE.

 AVERAGE HEAT FLUX                   0.00       TIME AVG. HEAT FLUX   1.000E-02
 ALL HEAT FLUX RESIDUALS ARE ZERO
 ALL TEMP.    INCREMENTS ARE ZERO
 ALL CORRECTION TO TEMP.    ARE ZERO
          THERE IS ZERO HEAT FLUX EVERYWHERE
 
	UNSYMMETRIC NEW DIRECT SPARSE SOLVER RUNNING ON
 	1 HOST x 1 MPI RANK PER HOST x 2 THREADS PER RANK
        NUMBER OF EQUATIONS:  258264
        NUMBER OF RHS:        1
        NUMBER OF FLOPS:      6.107e+11
        SOLVER ELAPSED TIME:  6.9s

               CONVERGENCE CHECKS FOR EQUILIBRIUM ITERATION     2


 AVERAGE FORCE                      0.810       TIME AVG. FORCE       0.461    
 LARGEST SCALED RESIDUAL FORCE      3.608E-03   AT NODE      56115   DOF  2
   INSTANCE: SH115-M-1                                                                       
  CORRESPONDING RESIDUAL FORCE      3.608E-03
 LARGEST INCREMENT OF DISP.         2.100E-05   AT NODE       2871   DOF  2
   INSTANCE: SH115-M-1                                                                       
 LARGEST CORRECTION TO DISP.        1.470E-08   AT NODE      56663   DOF  2
   INSTANCE: SH115-M-1                                                                       
          FORCE     EQUILIBRIUM NOT ACHIEVED WITHIN TOLERANCE.

 AVERAGE HEAT FLUX                   0.00       TIME AVG. HEAT FLUX   1.000E-02
 ALL HEAT FLUX RESIDUALS ARE ZERO
 ALL TEMP.    INCREMENTS ARE ZERO
 ALL CORRECTION TO TEMP.    ARE ZERO
          THERE IS ZERO HEAT FLUX EVERYWHERE
 
	UNSYMMETRIC NEW DIRECT SPARSE SOLVER RUNNING ON
 	1 HOST x 1 MPI RANK PER HOST x 2 THREADS PER RANK
        NUMBER OF EQUATIONS:  258264
        NUMBER OF RHS:        1
        NUMBER OF FLOPS:      6.107e+11
        SOLVER ELAPSED TIME:  6.7s

               CONVERGENCE CHECKS FOR EQUILIBRIUM ITERATION     3


 AVERAGE FORCE                      0.810       TIME AVG. FORCE       0.461    
 LARGEST SCALED RESIDUAL FORCE      3.076E-06   AT NODE      56115   DOF  1
   INSTANCE: SH115-M-1                                                                       
  CORRESPONDING RESIDUAL FORCE      3.076E-06
 LARGEST INCREMENT OF DISP.         2.100E-05   AT NODE       2871   DOF  2
   INSTANCE: SH115-M-1                                                                       
 LARGEST CORRECTION TO DISP.       -1.212E-10   AT NODE      28885   DOF  2
   INSTANCE: SH115-M-1                                                                       
          THE FORCE     EQUILIBRIUM EQUATIONS HAVE CONVERGED

 AVERAGE HEAT FLUX                   0.00       TIME AVG. HEAT FLUX   1.000E-02
 ALL HEAT FLUX RESIDUALS ARE ZERO
 ALL TEMP.    INCREMENTS ARE ZERO
 ALL CORRECTION TO TEMP.    ARE ZERO
          THERE IS ZERO HEAT FLUX EVERYWHERE

 MAXIMUM NON-PRESCRIBED INCREMENT IN TEMPERATURE IS    0.00    

 ITERATION SUMMARY FOR THE INCREMENT:   3 TOTAL ITERATIONS, OF WHICH
   0 ARE SEVERE DISCONTINUITY ITERATIONS AND  3 ARE EQUILIBRIUM ITERATIONS.

 TIME INCREMENT COMPLETED   10.0    ,  FRACTION OF STEP COMPLETED  8.000E-02
 STEP TIME COMPLETED        80.0    ,  TOTAL TIME COMPLETED         80.0    


  INCREMENT     9 STARTS. ATTEMPT NUMBER  1, TIME INCREMENT   10.0    
 
	UNSYMMETRIC NEW DIRECT SPARSE SOLVER RUNNING ON
 	1 HOST x 1 MPI RANK PER HOST x 2 THREADS PER RANK
        NUMBER OF EQUATIONS:  258264
        NUMBER OF RHS:        1
        NUMBER OF FLOPS:      6.107e+11
        SOLVER ELAPSED TIME:  6.8s

               CONVERGENCE CHECKS FOR EQUILIBRIUM ITERATION     1


 AVERAGE FORCE                      0.901       TIME AVG. FORCE       0.510    
 LARGEST SCALED RESIDUAL FORCE      0.135       AT NODE      28930   DOF  2
   INSTANCE: SH115-M-1                                                                       
  CORRESPONDING RESIDUAL FORCE      0.135    
 LARGEST INCREMENT OF DISP.         2.100E-05   AT NODE       2871   DOF  2
   INSTANCE: SH115-M-1                                                                       
 LARGEST CORRECTION TO DISP.        3.760E-07   AT NODE      18620   DOF  2
   INSTANCE: SH115-M-1                                                                       
          FORCE     EQUILIBRIUM NOT ACHIEVED WITHIN TOLERANCE.

 AVERAGE HEAT FLUX                   0.00       TIME AVG. HEAT FLUX   1.000E-02
 ALL HEAT FLUX RESIDUALS ARE ZERO
 ALL TEMP.    INCREMENTS ARE ZERO
 ALL CORRECTION TO TEMP.    ARE ZERO
          THERE IS ZERO HEAT FLUX EVERYWHERE
 
	UNSYMMETRIC NEW DIRECT SPARSE SOLVER RUNNING ON
 	1 HOST x 1 MPI RANK PER HOST x 2 THREADS PER RANK
        NUMBER OF EQUATIONS:  258264
        NUMBER OF RHS:        1
        NUMBER OF FLOPS:      6.107e+11
        SOLVER ELAPSED TIME:  7.7s

               CONVERGENCE CHECKS FOR EQUILIBRIUM ITERATION     2


 AVERAGE FORCE                      0.901       TIME AVG. FORCE       0.510    
 LARGEST SCALED RESIDUAL FORCE      1.587E-03   AT NODE      56814   DOF  2
   INSTANCE: SH115-M-1                                                                       
  CORRESPONDING RESIDUAL FORCE      1.587E-03
 LARGEST INCREMENT OF DISP.         2.100E-05   AT NODE       2871   DOF  2
   INSTANCE: SH115-M-1                                                                       
 LARGEST CORRECTION TO DISP.        1.191E-08   AT NODE      56366   DOF  2
   INSTANCE: SH115-M-1                                                                       
          THE FORCE     EQUILIBRIUM EQUATIONS HAVE CONVERGED

 AVERAGE HEAT FLUX                   0.00       TIME AVG. HEAT FLUX   1.000E-02
 ALL HEAT FLUX RESIDUALS ARE ZERO
 ALL TEMP.    INCREMENTS ARE ZERO
 ALL CORRECTION TO TEMP.    ARE ZERO
          THERE IS ZERO HEAT FLUX EVERYWHERE

 MAXIMUM NON-PRESCRIBED INCREMENT IN TEMPERATURE IS    0.00    

 ITERATION SUMMARY FOR THE INCREMENT:   2 TOTAL ITERATIONS, OF WHICH
   0 ARE SEVERE DISCONTINUITY ITERATIONS AND  2 ARE EQUILIBRIUM ITERATIONS.

 TIME INCREMENT COMPLETED   10.0    ,  FRACTION OF STEP COMPLETED  9.000E-02
 STEP TIME COMPLETED        90.0    ,  TOTAL TIME COMPLETED         90.0    


  INCREMENT    10 STARTS. ATTEMPT NUMBER  1, TIME INCREMENT   10.0    
 
	UNSYMMETRIC NEW DIRECT SPARSE SOLVER RUNNING ON
 	1 HOST x 1 MPI RANK PER HOST x 2 THREADS PER RANK
        NUMBER OF EQUATIONS:  258264
        NUMBER OF RHS:        1
        NUMBER OF FLOPS:      6.107e+11
        SOLVER ELAPSED TIME:  7.0s

               CONVERGENCE CHECKS FOR EQUILIBRIUM ITERATION     1


 AVERAGE FORCE                      0.988       TIME AVG. FORCE       0.558    
 LARGEST SCALED RESIDUAL FORCE     -8.549E-02   AT NODE      29550   DOF  2
   INSTANCE: SH115-M-1                                                                       
  CORRESPONDING RESIDUAL FORCE     -8.549E-02
 LARGEST INCREMENT OF DISP.         2.100E-05   AT NODE       2871   DOF  2
   INSTANCE: SH115-M-1                                                                       
 LARGEST CORRECTION TO DISP.        3.586E-07   AT NODE      56549   DOF  2
   INSTANCE: SH115-M-1                                                                       
          FORCE     EQUILIBRIUM NOT ACHIEVED WITHIN TOLERANCE.

 AVERAGE HEAT FLUX                   0.00       TIME AVG. HEAT FLUX   1.000E-02
 ALL HEAT FLUX RESIDUALS ARE ZERO
 ALL TEMP.    INCREMENTS ARE ZERO
 ALL CORRECTION TO TEMP.    ARE ZERO
          THERE IS ZERO HEAT FLUX EVERYWHERE
 
	UNSYMMETRIC NEW DIRECT SPARSE SOLVER RUNNING ON
 	1 HOST x 1 MPI RANK PER HOST x 2 THREADS PER RANK
        NUMBER OF EQUATIONS:  258264
        NUMBER OF RHS:        1
        NUMBER OF FLOPS:      6.107e+11
        SOLVER ELAPSED TIME:  7.0s

               CONVERGENCE CHECKS FOR EQUILIBRIUM ITERATION     2


 AVERAGE FORCE                      0.988       TIME AVG. FORCE       0.558    
 LARGEST SCALED RESIDUAL FORCE      1.187E-03   AT NODE      56915   DOF  2
   INSTANCE: SH115-M-1                                                                       
  CORRESPONDING RESIDUAL FORCE      1.187E-03
 LARGEST INCREMENT OF DISP.         2.100E-05   AT NODE       2871   DOF  2
   INSTANCE: SH115-M-1                                                                       
 LARGEST CORRECTION TO DISP.        1.115E-08   AT NODE      57820   DOF  2
   INSTANCE: SH115-M-1                                                                       
          THE FORCE     EQUILIBRIUM EQUATIONS HAVE CONVERGED

 AVERAGE HEAT FLUX                   0.00       TIME AVG. HEAT FLUX   1.000E-02
 ALL HEAT FLUX RESIDUALS ARE ZERO
 ALL TEMP.    INCREMENTS ARE ZERO
 ALL CORRECTION TO TEMP.    ARE ZERO
          THERE IS ZERO HEAT FLUX EVERYWHERE

 MAXIMUM NON-PRESCRIBED INCREMENT IN TEMPERATURE IS    0.00    

 ITERATION SUMMARY FOR THE INCREMENT:   2 TOTAL ITERATIONS, OF WHICH
   0 ARE SEVERE DISCONTINUITY ITERATIONS AND  2 ARE EQUILIBRIUM ITERATIONS.

 TIME INCREMENT COMPLETED   10.0    ,  FRACTION OF STEP COMPLETED  0.100    
 STEP TIME COMPLETED        100.    ,  TOTAL TIME COMPLETED         100.    


  INCREMENT    11 STARTS. ATTEMPT NUMBER  1, TIME INCREMENT   10.0    
 
	UNSYMMETRIC NEW DIRECT SPARSE SOLVER RUNNING ON
 	1 HOST x 1 MPI RANK PER HOST x 2 THREADS PER RANK
        NUMBER OF EQUATIONS:  258264
        NUMBER OF RHS:        1
        NUMBER OF FLOPS:      6.107e+11
        SOLVER ELAPSED TIME:  7.3s

               CONVERGENCE CHECKS FOR EQUILIBRIUM ITERATION     1


 AVERAGE FORCE                       1.07       TIME AVG. FORCE       0.604    
 LARGEST SCALED RESIDUAL FORCE      0.111       AT NODE      57161   DOF  2
   INSTANCE: SH115-M-1                                                                       
  CORRESPONDING RESIDUAL FORCE      0.111    
 LARGEST INCREMENT OF DISP.         2.100E-05   AT NODE       2871   DOF  2
   INSTANCE: SH115-M-1                                                                       
 LARGEST CORRECTION TO DISP.        3.563E-07   AT NODE      56716   DOF  2
   INSTANCE: SH115-M-1                                                                       
          FORCE     EQUILIBRIUM NOT ACHIEVED WITHIN TOLERANCE.

 AVERAGE HEAT FLUX                   0.00       TIME AVG. HEAT FLUX   1.000E-02
 ALL HEAT FLUX RESIDUALS ARE ZERO
 ALL TEMP.    INCREMENTS ARE ZERO
 ALL CORRECTION TO TEMP.    ARE ZERO
          THERE IS ZERO HEAT FLUX EVERYWHERE
 
	UNSYMMETRIC NEW DIRECT SPARSE SOLVER RUNNING ON
 	1 HOST x 1 MPI RANK PER HOST x 2 THREADS PER RANK
        NUMBER OF EQUATIONS:  258264
        NUMBER OF RHS:        1
        NUMBER OF FLOPS:      6.107e+11
        SOLVER ELAPSED TIME:  6.7s

               CONVERGENCE CHECKS FOR EQUILIBRIUM ITERATION     2


 AVERAGE FORCE                       1.07       TIME AVG. FORCE       0.604    
 LARGEST SCALED RESIDUAL FORCE      6.748E-04   AT NODE      22890   DOF  3
   INSTANCE: SH115-M-1                                                                       
  CORRESPONDING RESIDUAL FORCE      6.748E-04
 LARGEST INCREMENT OF DISP.         2.100E-05   AT NODE       2871   DOF  2
   INSTANCE: SH115-M-1                                                                       
 LARGEST CORRECTION TO DISP.        1.012E-08   AT NODE      52854   DOF  2
   INSTANCE: SH115-M-1                                                                       
          THE FORCE     EQUILIBRIUM EQUATIONS HAVE CONVERGED

 AVERAGE HEAT FLUX                   0.00       TIME AVG. HEAT FLUX   1.000E-02
 ALL HEAT FLUX RESIDUALS ARE ZERO
 ALL TEMP.    INCREMENTS ARE ZERO
 ALL CORRECTION TO TEMP.    ARE ZERO
          THERE IS ZERO HEAT FLUX EVERYWHERE

 MAXIMUM NON-PRESCRIBED INCREMENT IN TEMPERATURE IS    0.00    

 ITERATION SUMMARY FOR THE INCREMENT:   2 TOTAL ITERATIONS, OF WHICH
   0 ARE SEVERE DISCONTINUITY ITERATIONS AND  2 ARE EQUILIBRIUM ITERATIONS.

 TIME INCREMENT COMPLETED   10.0    ,  FRACTION OF STEP COMPLETED  0.110    
 STEP TIME COMPLETED        110.    ,  TOTAL TIME COMPLETED         110.    


  INCREMENT    12 STARTS. ATTEMPT NUMBER  1, TIME INCREMENT   10.0    
 
	UNSYMMETRIC NEW DIRECT SPARSE SOLVER RUNNING ON
 	1 HOST x 1 MPI RANK PER HOST x 2 THREADS PER RANK
        NUMBER OF EQUATIONS:  258264
        NUMBER OF RHS:        1
        NUMBER OF FLOPS:      6.107e+11
        SOLVER ELAPSED TIME:  6.7s

               CONVERGENCE CHECKS FOR EQUILIBRIUM ITERATION     1


 AVERAGE FORCE                       1.15       TIME AVG. FORCE       0.650    
 LARGEST SCALED RESIDUAL FORCE      8.881E-02   AT NODE      29616   DOF  2
   INSTANCE: SH115-M-1                                                                       
  CORRESPONDING RESIDUAL FORCE      8.881E-02
 LARGEST INCREMENT OF DISP.         2.100E-05   AT NODE       2871   DOF  2
   INSTANCE: SH115-M-1                                                                       
 LARGEST CORRECTION TO DISP.        3.708E-07   AT NODE      56867   DOF  2
   INSTANCE: SH115-M-1                                                                       
          FORCE     EQUILIBRIUM NOT ACHIEVED WITHIN TOLERANCE.

 AVERAGE HEAT FLUX                   0.00       TIME AVG. HEAT FLUX   1.000E-02
 ALL HEAT FLUX RESIDUALS ARE ZERO
 ALL TEMP.    INCREMENTS ARE ZERO
 ALL CORRECTION TO TEMP.    ARE ZERO
          THERE IS ZERO HEAT FLUX EVERYWHERE
 
	UNSYMMETRIC NEW DIRECT SPARSE SOLVER RUNNING ON
 	1 HOST x 1 MPI RANK PER HOST x 2 THREADS PER RANK
        NUMBER OF EQUATIONS:  258264
        NUMBER OF RHS:        1
        NUMBER OF FLOPS:      6.107e+11
        SOLVER ELAPSED TIME:  7.1s

               CONVERGENCE CHECKS FOR EQUILIBRIUM ITERATION     2


 AVERAGE FORCE                       1.15       TIME AVG. FORCE       0.650    
 LARGEST SCALED RESIDUAL FORCE     -8.163E-04   AT NODE      30299   DOF  2
   INSTANCE: SH115-M-1                                                                       
  CORRESPONDING RESIDUAL FORCE     -8.163E-04
 LARGEST INCREMENT OF DISP.         2.100E-05   AT NODE       2871   DOF  2
   INSTANCE: SH115-M-1                                                                       
 LARGEST CORRECTION TO DISP.        8.966E-09   AT NODE      57311   DOF  2
   INSTANCE: SH115-M-1                                                                       
          THE FORCE     EQUILIBRIUM EQUATIONS HAVE CONVERGED

 AVERAGE HEAT FLUX                   0.00       TIME AVG. HEAT FLUX   1.000E-02
 ALL HEAT FLUX RESIDUALS ARE ZERO
 ALL TEMP.    INCREMENTS ARE ZERO
 ALL CORRECTION TO TEMP.    ARE ZERO
          THERE IS ZERO HEAT FLUX EVERYWHERE

 MAXIMUM NON-PRESCRIBED INCREMENT IN TEMPERATURE IS    0.00    

 ITERATION SUMMARY FOR THE INCREMENT:   2 TOTAL ITERATIONS, OF WHICH
   0 ARE SEVERE DISCONTINUITY ITERATIONS AND  2 ARE EQUILIBRIUM ITERATIONS.

 TIME INCREMENT COMPLETED   10.0    ,  FRACTION OF STEP COMPLETED  0.120    
 STEP TIME COMPLETED        120.    ,  TOTAL TIME COMPLETED         120.    


  INCREMENT    13 STARTS. ATTEMPT NUMBER  1, TIME INCREMENT   10.0    
 
	UNSYMMETRIC NEW DIRECT SPARSE SOLVER RUNNING ON
 	1 HOST x 1 MPI RANK PER HOST x 2 THREADS PER RANK
        NUMBER OF EQUATIONS:  258264
        NUMBER OF RHS:        1
        NUMBER OF FLOPS:      6.107e+11
        SOLVER ELAPSED TIME:  7.3s

               CONVERGENCE CHECKS FOR EQUILIBRIUM ITERATION     1


 AVERAGE FORCE                       1.22       TIME AVG. FORCE       0.694    
 LARGEST SCALED RESIDUAL FORCE     -7.174E-02   AT NODE      57883   DOF  2
   INSTANCE: SH115-M-1                                                                       
  CORRESPONDING RESIDUAL FORCE     -7.174E-02
 LARGEST INCREMENT OF DISP.         2.100E-05   AT NODE       2871   DOF  2
   INSTANCE: SH115-M-1                                                                       
 LARGEST CORRECTION TO DISP.        3.605E-07   AT NODE      57836   DOF  2
   INSTANCE: SH115-M-1                                                                       
          FORCE     EQUILIBRIUM NOT ACHIEVED WITHIN TOLERANCE.

 AVERAGE HEAT FLUX                   0.00       TIME AVG. HEAT FLUX   1.000E-02
 ALL HEAT FLUX RESIDUALS ARE ZERO
 ALL TEMP.    INCREMENTS ARE ZERO
 ALL CORRECTION TO TEMP.    ARE ZERO
          THERE IS ZERO HEAT FLUX EVERYWHERE
 
	UNSYMMETRIC NEW DIRECT SPARSE SOLVER RUNNING ON
 	1 HOST x 1 MPI RANK PER HOST x 2 THREADS PER RANK
        NUMBER OF EQUATIONS:  258264
        NUMBER OF RHS:        1
        NUMBER OF FLOPS:      6.107e+11
        SOLVER ELAPSED TIME:  6.8s

               CONVERGENCE CHECKS FOR EQUILIBRIUM ITERATION     2


 AVERAGE FORCE                       1.22       TIME AVG. FORCE       0.693    
 LARGEST SCALED RESIDUAL FORCE     -2.033E-03   AT NODE      46001   DOF  1
   INSTANCE: SH115-M-1                                                                       
  CORRESPONDING RESIDUAL FORCE     -2.033E-03
 LARGEST INCREMENT OF DISP.         2.100E-05   AT NODE       2871   DOF  2
   INSTANCE: SH115-M-1                                                                       
 LARGEST CORRECTION TO DISP.        8.385E-09   AT NODE      53207   DOF  2
   INSTANCE: SH115-M-1                                                                       
          THE FORCE     EQUILIBRIUM EQUATIONS HAVE CONVERGED

 AVERAGE HEAT FLUX                   0.00       TIME AVG. HEAT FLUX   1.000E-02
 ALL HEAT FLUX RESIDUALS ARE ZERO
 ALL TEMP.    INCREMENTS ARE ZERO
 ALL CORRECTION TO TEMP.    ARE ZERO
          THERE IS ZERO HEAT FLUX EVERYWHERE

 MAXIMUM NON-PRESCRIBED INCREMENT IN TEMPERATURE IS    0.00    

 ITERATION SUMMARY FOR THE INCREMENT:   2 TOTAL ITERATIONS, OF WHICH
   0 ARE SEVERE DISCONTINUITY ITERATIONS AND  2 ARE EQUILIBRIUM ITERATIONS.

 TIME INCREMENT COMPLETED   10.0    ,  FRACTION OF STEP COMPLETED  0.130    
 STEP TIME COMPLETED        130.    ,  TOTAL TIME COMPLETED         130.    


  INCREMENT    14 STARTS. ATTEMPT NUMBER  1, TIME INCREMENT   10.0    
 
	UNSYMMETRIC NEW DIRECT SPARSE SOLVER RUNNING ON
 	1 HOST x 1 MPI RANK PER HOST x 2 THREADS PER RANK
        NUMBER OF EQUATIONS:  258264
        NUMBER OF RHS:        1
        NUMBER OF FLOPS:      6.107e+11
        SOLVER ELAPSED TIME:  7.3s

               CONVERGENCE CHECKS FOR EQUILIBRIUM ITERATION     1


 AVERAGE FORCE                       1.29       TIME AVG. FORCE       0.736    
 LARGEST SCALED RESIDUAL FORCE     -0.247       AT NODE      44540   DOF  1
   INSTANCE: SH115-M-1                                                                       
  CORRESPONDING RESIDUAL FORCE     -0.247    
 LARGEST INCREMENT OF DISP.         2.102E-05   AT NODE      19963   DOF  2
   INSTANCE: SH115-M-1                                                                       
 LARGEST CORRECTION TO DISP.        4.897E-07   AT NODE      14385   DOF  2
   INSTANCE: SH115-M-1                                                                       
          FORCE     EQUILIBRIUM NOT ACHIEVED WITHIN TOLERANCE.

 AVERAGE HEAT FLUX                   0.00       TIME AVG. HEAT FLUX   1.000E-02
 ALL HEAT FLUX RESIDUALS ARE ZERO
 ALL TEMP.    INCREMENTS ARE ZERO
 ALL CORRECTION TO TEMP.    ARE ZERO
          THERE IS ZERO HEAT FLUX EVERYWHERE
 
	UNSYMMETRIC NEW DIRECT SPARSE SOLVER RUNNING ON
 	1 HOST x 1 MPI RANK PER HOST x 2 THREADS PER RANK
        NUMBER OF EQUATIONS:  258264
        NUMBER OF RHS:        1
        NUMBER OF FLOPS:      6.107e+11
        SOLVER ELAPSED TIME:  6.8s

               CONVERGENCE CHECKS FOR EQUILIBRIUM ITERATION     2


 AVERAGE FORCE                       1.28       TIME AVG. FORCE       0.736    
 LARGEST SCALED RESIDUAL FORCE      3.169E-02   AT NODE      43691   DOF  2
   INSTANCE: SH115-M-1                                                                       
  CORRESPONDING RESIDUAL FORCE      3.169E-02
 LARGEST INCREMENT OF DISP.         2.102E-05   AT NODE      19963   DOF  2
   INSTANCE: SH115-M-1                                                                       
 LARGEST CORRECTION TO DISP.        9.327E-08   AT NODE      48313   DOF  2
   INSTANCE: SH115-M-1                                                                       
          FORCE     EQUILIBRIUM NOT ACHIEVED WITHIN TOLERANCE.

 AVERAGE HEAT FLUX                   0.00       TIME AVG. HEAT FLUX   1.000E-02
 ALL HEAT FLUX RESIDUALS ARE ZERO
 ALL TEMP.    INCREMENTS ARE ZERO
 ALL CORRECTION TO TEMP.    ARE ZERO
          THERE IS ZERO HEAT FLUX EVERYWHERE
 
	UNSYMMETRIC NEW DIRECT SPARSE SOLVER RUNNING ON
 	1 HOST x 1 MPI RANK PER HOST x 2 THREADS PER RANK
        NUMBER OF EQUATIONS:  258264
        NUMBER OF RHS:        1
        NUMBER OF FLOPS:      6.107e+11
        SOLVER ELAPSED TIME:  7.5s

               CONVERGENCE CHECKS FOR EQUILIBRIUM ITERATION     3


 AVERAGE FORCE                       1.28       TIME AVG. FORCE       0.736    
 LARGEST SCALED RESIDUAL FORCE      1.642E-03   AT NODE      45032   DOF  1
   INSTANCE: SH115-M-1                                                                       
  CORRESPONDING RESIDUAL FORCE      1.642E-03
 LARGEST INCREMENT OF DISP.         2.102E-05   AT NODE      19963   DOF  2
   INSTANCE: SH115-M-1                                                                       
 LARGEST CORRECTION TO DISP.        5.872E-09   AT NODE      43691   DOF  2
   INSTANCE: SH115-M-1                                                                       
          THE FORCE     EQUILIBRIUM EQUATIONS HAVE CONVERGED

 AVERAGE HEAT FLUX                   0.00       TIME AVG. HEAT FLUX   1.000E-02
 ALL HEAT FLUX RESIDUALS ARE ZERO
 ALL TEMP.    INCREMENTS ARE ZERO
 ALL CORRECTION TO TEMP.    ARE ZERO
          THERE IS ZERO HEAT FLUX EVERYWHERE

 MAXIMUM NON-PRESCRIBED INCREMENT IN TEMPERATURE IS    0.00    

 ITERATION SUMMARY FOR THE INCREMENT:   3 TOTAL ITERATIONS, OF WHICH
   0 ARE SEVERE DISCONTINUITY ITERATIONS AND  3 ARE EQUILIBRIUM ITERATIONS.

 TIME INCREMENT COMPLETED   10.0    ,  FRACTION OF STEP COMPLETED  0.140    
 STEP TIME COMPLETED        140.    ,  TOTAL TIME COMPLETED         140.    


  INCREMENT    15 STARTS. ATTEMPT NUMBER  1, TIME INCREMENT   10.0    
 
	UNSYMMETRIC NEW DIRECT SPARSE SOLVER RUNNING ON
 	1 HOST x 1 MPI RANK PER HOST x 2 THREADS PER RANK
        NUMBER OF EQUATIONS:  258264
        NUMBER OF RHS:        1
        NUMBER OF FLOPS:      6.107e+11
        SOLVER ELAPSED TIME:  7.3s

               CONVERGENCE CHECKS FOR EQUILIBRIUM ITERATION     1


 AVERAGE FORCE                       1.34       TIME AVG. FORCE       0.776    
 LARGEST SCALED RESIDUAL FORCE      0.211       AT NODE      42236   DOF  1
   INSTANCE: SH115-M-1                                                                       
  CORRESPONDING RESIDUAL FORCE      0.211    
 LARGEST INCREMENT OF DISP.         2.128E-05   AT NODE      19963   DOF  2
   INSTANCE: SH115-M-1                                                                       
 LARGEST CORRECTION TO DISP.        4.416E-07   AT NODE      11053   DOF  2
   INSTANCE: SH115-M-1                                                                       
          FORCE     EQUILIBRIUM NOT ACHIEVED WITHIN TOLERANCE.

 AVERAGE HEAT FLUX                   0.00       TIME AVG. HEAT FLUX   1.000E-02
 ALL HEAT FLUX RESIDUALS ARE ZERO
 ALL TEMP.    INCREMENTS ARE ZERO
 ALL CORRECTION TO TEMP.    ARE ZERO
          THERE IS ZERO HEAT FLUX EVERYWHERE
 
	UNSYMMETRIC NEW DIRECT SPARSE SOLVER RUNNING ON
 	1 HOST x 1 MPI RANK PER HOST x 2 THREADS PER RANK
        NUMBER OF EQUATIONS:  258264
        NUMBER OF RHS:        1
        NUMBER OF FLOPS:      6.107e+11
        SOLVER ELAPSED TIME:  6.9s

               CONVERGENCE CHECKS FOR EQUILIBRIUM ITERATION     2


 AVERAGE FORCE                       1.34       TIME AVG. FORCE       0.776    
 LARGEST SCALED RESIDUAL FORCE      2.468E-02   AT NODE      44120   DOF  1
   INSTANCE: SH115-M-1                                                                       
  CORRESPONDING RESIDUAL FORCE      2.468E-02
 LARGEST INCREMENT OF DISP.         2.128E-05   AT NODE      19963   DOF  2
   INSTANCE: SH115-M-1                                                                       
 LARGEST CORRECTION TO DISP.        4.849E-08   AT NODE      49333   DOF  2
   INSTANCE: SH115-M-1                                                                       
          FORCE     EQUILIBRIUM NOT ACHIEVED WITHIN TOLERANCE.

 AVERAGE HEAT FLUX                   0.00       TIME AVG. HEAT FLUX   1.000E-02
 ALL HEAT FLUX RESIDUALS ARE ZERO
 ALL TEMP.    INCREMENTS ARE ZERO
 ALL CORRECTION TO TEMP.    ARE ZERO
          THERE IS ZERO HEAT FLUX EVERYWHERE
 
	UNSYMMETRIC NEW DIRECT SPARSE SOLVER RUNNING ON
 	1 HOST x 1 MPI RANK PER HOST x 2 THREADS PER RANK
        NUMBER OF EQUATIONS:  258264
        NUMBER OF RHS:        1
        NUMBER OF FLOPS:      6.107e+11
        SOLVER ELAPSED TIME:  7.3s

               CONVERGENCE CHECKS FOR EQUILIBRIUM ITERATION     3


 AVERAGE FORCE                       1.34       TIME AVG. FORCE       0.776    
 LARGEST SCALED RESIDUAL FORCE      5.444E-04   AT NODE      43705   DOF  1
   INSTANCE: SH115-M-1                                                                       
  CORRESPONDING RESIDUAL FORCE      5.444E-04
 LARGEST INCREMENT OF DISP.         2.128E-05   AT NODE      19963   DOF  2
   INSTANCE: SH115-M-1                                                                       
 LARGEST CORRECTION TO DISP.        3.406E-09   AT NODE      49314   DOF  2
   INSTANCE: SH115-M-1                                                                       
          THE FORCE     EQUILIBRIUM EQUATIONS HAVE CONVERGED

 AVERAGE HEAT FLUX                   0.00       TIME AVG. HEAT FLUX   1.000E-02
 ALL HEAT FLUX RESIDUALS ARE ZERO
 ALL TEMP.    INCREMENTS ARE ZERO
 ALL CORRECTION TO TEMP.    ARE ZERO
          THERE IS ZERO HEAT FLUX EVERYWHERE

 MAXIMUM NON-PRESCRIBED INCREMENT IN TEMPERATURE IS    0.00    

 ITERATION SUMMARY FOR THE INCREMENT:   3 TOTAL ITERATIONS, OF WHICH
   0 ARE SEVERE DISCONTINUITY ITERATIONS AND  3 ARE EQUILIBRIUM ITERATIONS.

 TIME INCREMENT COMPLETED   10.0    ,  FRACTION OF STEP COMPLETED  0.150    
 STEP TIME COMPLETED        150.    ,  TOTAL TIME COMPLETED         150.    


  INCREMENT    16 STARTS. ATTEMPT NUMBER  1, TIME INCREMENT   10.0    
 
	UNSYMMETRIC NEW DIRECT SPARSE SOLVER RUNNING ON
 	1 HOST x 1 MPI RANK PER HOST x 2 THREADS PER RANK
        NUMBER OF EQUATIONS:  258264
        NUMBER OF RHS:        1
        NUMBER OF FLOPS:      6.107e+11
        SOLVER ELAPSED TIME:  7.8s

               CONVERGENCE CHECKS FOR EQUILIBRIUM ITERATION     1


 AVERAGE FORCE                       1.39       TIME AVG. FORCE       0.815    
 LARGEST SCALED RESIDUAL FORCE      0.214       AT NODE      42237   DOF  1
   INSTANCE: SH115-M-1                                                                       
  CORRESPONDING RESIDUAL FORCE      0.214    
 LARGEST INCREMENT OF DISP.         2.152E-05   AT NODE      19963   DOF  2
   INSTANCE: SH115-M-1                                                                       
 LARGEST CORRECTION TO DISP.        5.433E-07   AT NODE      38034   DOF  2
   INSTANCE: SH115-M-1                                                                       
          FORCE     EQUILIBRIUM NOT ACHIEVED WITHIN TOLERANCE.

 AVERAGE HEAT FLUX                   0.00       TIME AVG. HEAT FLUX   1.000E-02
 ALL HEAT FLUX RESIDUALS ARE ZERO
 ALL TEMP.    INCREMENTS ARE ZERO
 ALL CORRECTION TO TEMP.    ARE ZERO
          THERE IS ZERO HEAT FLUX EVERYWHERE
 
	UNSYMMETRIC NEW DIRECT SPARSE SOLVER RUNNING ON
 	1 HOST x 1 MPI RANK PER HOST x 2 THREADS PER RANK
        NUMBER OF EQUATIONS:  258264
        NUMBER OF RHS:        1
        NUMBER OF FLOPS:      6.107e+11
        SOLVER ELAPSED TIME:  7.3s

               CONVERGENCE CHECKS FOR EQUILIBRIUM ITERATION     2


 AVERAGE FORCE                       1.39       TIME AVG. FORCE       0.815    
 LARGEST SCALED RESIDUAL FORCE     -1.190E-02   AT NODE      48340   DOF  1
   INSTANCE: SH115-M-1                                                                       
  CORRESPONDING RESIDUAL FORCE     -1.190E-02
 LARGEST INCREMENT OF DISP.         2.152E-05   AT NODE      19963   DOF  2
   INSTANCE: SH115-M-1                                                                       
 LARGEST CORRECTION TO DISP.       -4.569E-08   AT NODE      42685   DOF  2
   INSTANCE: SH115-M-1                                                                       
          FORCE     EQUILIBRIUM NOT ACHIEVED WITHIN TOLERANCE.

 AVERAGE HEAT FLUX                   0.00       TIME AVG. HEAT FLUX   1.000E-02
 ALL HEAT FLUX RESIDUALS ARE ZERO
 ALL TEMP.    INCREMENTS ARE ZERO
 ALL CORRECTION TO TEMP.    ARE ZERO
          THERE IS ZERO HEAT FLUX EVERYWHERE
 
	UNSYMMETRIC NEW DIRECT SPARSE SOLVER RUNNING ON
 	1 HOST x 1 MPI RANK PER HOST x 2 THREADS PER RANK
        NUMBER OF EQUATIONS:  258264
        NUMBER OF RHS:        1
        NUMBER OF FLOPS:      6.107e+11
        SOLVER ELAPSED TIME:  7.0s

               CONVERGENCE CHECKS FOR EQUILIBRIUM ITERATION     3


 AVERAGE FORCE                       1.39       TIME AVG. FORCE       0.815    
 LARGEST SCALED RESIDUAL FORCE     -3.821E-05   AT NODE      45977   DOF  2
   INSTANCE: SH115-M-1                                                                       
  CORRESPONDING RESIDUAL FORCE     -3.821E-05
 LARGEST INCREMENT OF DISP.         2.152E-05   AT NODE      19963   DOF  2
   INSTANCE: SH115-M-1                                                                       
 LARGEST CORRECTION TO DISP.        1.097E-09   AT NODE      43641   DOF  2
   INSTANCE: SH115-M-1                                                                       
          THE FORCE     EQUILIBRIUM EQUATIONS HAVE CONVERGED

 AVERAGE HEAT FLUX                   0.00       TIME AVG. HEAT FLUX   1.000E-02
 ALL HEAT FLUX RESIDUALS ARE ZERO
 ALL TEMP.    INCREMENTS ARE ZERO
 ALL CORRECTION TO TEMP.    ARE ZERO
          THERE IS ZERO HEAT FLUX EVERYWHERE

 MAXIMUM NON-PRESCRIBED INCREMENT IN TEMPERATURE IS    0.00    

 ITERATION SUMMARY FOR THE INCREMENT:   3 TOTAL ITERATIONS, OF WHICH
   0 ARE SEVERE DISCONTINUITY ITERATIONS AND  3 ARE EQUILIBRIUM ITERATIONS.

 TIME INCREMENT COMPLETED   10.0    ,  FRACTION OF STEP COMPLETED  0.160    
 STEP TIME COMPLETED        160.    ,  TOTAL TIME COMPLETED         160.    


  INCREMENT    17 STARTS. ATTEMPT NUMBER  1, TIME INCREMENT   10.0    
 
	UNSYMMETRIC NEW DIRECT SPARSE SOLVER RUNNING ON
 	1 HOST x 1 MPI RANK PER HOST x 2 THREADS PER RANK
        NUMBER OF EQUATIONS:  258264
        NUMBER OF RHS:        1
        NUMBER OF FLOPS:      6.107e+11
        SOLVER ELAPSED TIME:  6.7s

               CONVERGENCE CHECKS FOR EQUILIBRIUM ITERATION     1


 AVERAGE FORCE                       1.43       TIME AVG. FORCE       0.851    
 LARGEST SCALED RESIDUAL FORCE     -9.704E-02   AT NODE      46941   DOF  1
   INSTANCE: SH115-M-1                                                                       
  CORRESPONDING RESIDUAL FORCE     -9.704E-02
 LARGEST INCREMENT OF DISP.         2.172E-05   AT NODE      19963   DOF  2
   INSTANCE: SH115-M-1                                                                       
 LARGEST CORRECTION TO DISP.        5.510E-07   AT NODE      43658   DOF  2
   INSTANCE: SH115-M-1                                                                       
          FORCE     EQUILIBRIUM NOT ACHIEVED WITHIN TOLERANCE.

 AVERAGE HEAT FLUX                   0.00       TIME AVG. HEAT FLUX   1.000E-02
 ALL HEAT FLUX RESIDUALS ARE ZERO
 ALL TEMP.    INCREMENTS ARE ZERO
 ALL CORRECTION TO TEMP.    ARE ZERO
          THERE IS ZERO HEAT FLUX EVERYWHERE
 
	UNSYMMETRIC NEW DIRECT SPARSE SOLVER RUNNING ON
 	1 HOST x 1 MPI RANK PER HOST x 2 THREADS PER RANK
        NUMBER OF EQUATIONS:  258264
        NUMBER OF RHS:        1
        NUMBER OF FLOPS:      6.107e+11
        SOLVER ELAPSED TIME:  6.9s

               CONVERGENCE CHECKS FOR EQUILIBRIUM ITERATION     2


 AVERAGE FORCE                       1.43       TIME AVG. FORCE       0.851    
 LARGEST SCALED RESIDUAL FORCE      5.647E-03   AT NODE      43139   DOF  1
   INSTANCE: SH115-M-1                                                                       
  CORRESPONDING RESIDUAL FORCE      5.647E-03
 LARGEST INCREMENT OF DISP.         2.172E-05   AT NODE      19963   DOF  2
   INSTANCE: SH115-M-1                                                                       
 LARGEST CORRECTION TO DISP.        3.491E-08   AT NODE      49276   DOF  2
   INSTANCE: SH115-M-1                                                                       
          FORCE     EQUILIBRIUM NOT ACHIEVED WITHIN TOLERANCE.

 AVERAGE HEAT FLUX                   0.00       TIME AVG. HEAT FLUX   1.000E-02
 ALL HEAT FLUX RESIDUALS ARE ZERO
 ALL TEMP.    INCREMENTS ARE ZERO
 ALL CORRECTION TO TEMP.    ARE ZERO
          THERE IS ZERO HEAT FLUX EVERYWHERE
 
	UNSYMMETRIC NEW DIRECT SPARSE SOLVER RUNNING ON
 	1 HOST x 1 MPI RANK PER HOST x 2 THREADS PER RANK
        NUMBER OF EQUATIONS:  258264
        NUMBER OF RHS:        1
        NUMBER OF FLOPS:      6.107e+11
        SOLVER ELAPSED TIME:  6.7s

               CONVERGENCE CHECKS FOR EQUILIBRIUM ITERATION     3


 AVERAGE FORCE                       1.43       TIME AVG. FORCE       0.851    
 LARGEST SCALED RESIDUAL FORCE     -6.406E-05   AT NODE      43139   DOF  2
   INSTANCE: SH115-M-1                                                                       
  CORRESPONDING RESIDUAL FORCE     -6.406E-05
 LARGEST INCREMENT OF DISP.         2.172E-05   AT NODE      19963   DOF  2
   INSTANCE: SH115-M-1                                                                       
 LARGEST CORRECTION TO DISP.       -7.721E-10   AT NODE      45021   DOF  2
   INSTANCE: SH115-M-1                                                                       
          THE FORCE     EQUILIBRIUM EQUATIONS HAVE CONVERGED

 AVERAGE HEAT FLUX                   0.00       TIME AVG. HEAT FLUX   1.000E-02
 ALL HEAT FLUX RESIDUALS ARE ZERO
 ALL TEMP.    INCREMENTS ARE ZERO
 ALL CORRECTION TO TEMP.    ARE ZERO
          THERE IS ZERO HEAT FLUX EVERYWHERE

 MAXIMUM NON-PRESCRIBED INCREMENT IN TEMPERATURE IS    0.00    

 ITERATION SUMMARY FOR THE INCREMENT:   3 TOTAL ITERATIONS, OF WHICH
   0 ARE SEVERE DISCONTINUITY ITERATIONS AND  3 ARE EQUILIBRIUM ITERATIONS.

 TIME INCREMENT COMPLETED   10.0    ,  FRACTION OF STEP COMPLETED  0.170    
 STEP TIME COMPLETED        170.    ,  TOTAL TIME COMPLETED         170.    


  INCREMENT    18 STARTS. ATTEMPT NUMBER  1, TIME INCREMENT   10.0    
 
	UNSYMMETRIC NEW DIRECT SPARSE SOLVER RUNNING ON
 	1 HOST x 1 MPI RANK PER HOST x 2 THREADS PER RANK
        NUMBER OF EQUATIONS:  258264
        NUMBER OF RHS:        1
        NUMBER OF FLOPS:      6.107e+11
        SOLVER ELAPSED TIME:  6.9s

               CONVERGENCE CHECKS FOR EQUILIBRIUM ITERATION     1


 AVERAGE FORCE                       1.47       TIME AVG. FORCE       0.885    
 LARGEST SCALED RESIDUAL FORCE     -5.369E-02   AT NODE      41230   DOF  2
   INSTANCE: SH115-M-1                                                                       
  CORRESPONDING RESIDUAL FORCE     -5.369E-02
 LARGEST INCREMENT OF DISP.         2.186E-05   AT NODE      19963   DOF  2
   INSTANCE: SH115-M-1                                                                       
 LARGEST CORRECTION TO DISP.        5.830E-07   AT NODE      43241   DOF  2
   INSTANCE: SH115-M-1                                                                       
          FORCE     EQUILIBRIUM NOT ACHIEVED WITHIN TOLERANCE.

 AVERAGE HEAT FLUX                   0.00       TIME AVG. HEAT FLUX   1.000E-02
 ALL HEAT FLUX RESIDUALS ARE ZERO
 ALL TEMP.    INCREMENTS ARE ZERO
 ALL CORRECTION TO TEMP.    ARE ZERO
          THERE IS ZERO HEAT FLUX EVERYWHERE
 
	UNSYMMETRIC NEW DIRECT SPARSE SOLVER RUNNING ON
 	1 HOST x 1 MPI RANK PER HOST x 2 THREADS PER RANK
        NUMBER OF EQUATIONS:  258264
        NUMBER OF RHS:        1
        NUMBER OF FLOPS:      6.107e+11
        SOLVER ELAPSED TIME:  6.6s

               CONVERGENCE CHECKS FOR EQUILIBRIUM ITERATION     2


 AVERAGE FORCE                       1.47       TIME AVG. FORCE       0.885    
 LARGEST SCALED RESIDUAL FORCE      2.766E-03   AT NODE      41798   DOF  1
   INSTANCE: SH115-M-1                                                                       
  CORRESPONDING RESIDUAL FORCE      2.766E-03
 LARGEST INCREMENT OF DISP.         2.186E-05   AT NODE      19963   DOF  2
   INSTANCE: SH115-M-1                                                                       
 LARGEST CORRECTION TO DISP.        1.933E-08   AT NODE      43654   DOF  2
   INSTANCE: SH115-M-1                                                                       
          THE FORCE     EQUILIBRIUM EQUATIONS HAVE CONVERGED

 AVERAGE HEAT FLUX                   0.00       TIME AVG. HEAT FLUX   1.000E-02
 ALL HEAT FLUX RESIDUALS ARE ZERO
 ALL TEMP.    INCREMENTS ARE ZERO
 ALL CORRECTION TO TEMP.    ARE ZERO
          THERE IS ZERO HEAT FLUX EVERYWHERE

 MAXIMUM NON-PRESCRIBED INCREMENT IN TEMPERATURE IS    0.00    

 ITERATION SUMMARY FOR THE INCREMENT:   2 TOTAL ITERATIONS, OF WHICH
   0 ARE SEVERE DISCONTINUITY ITERATIONS AND  2 ARE EQUILIBRIUM ITERATIONS.

 TIME INCREMENT COMPLETED   10.0    ,  FRACTION OF STEP COMPLETED  0.180    
 STEP TIME COMPLETED        180.    ,  TOTAL TIME COMPLETED         180.    


  INCREMENT    19 STARTS. ATTEMPT NUMBER  1, TIME INCREMENT   10.0    
 
	UNSYMMETRIC NEW DIRECT SPARSE SOLVER RUNNING ON
 	1 HOST x 1 MPI RANK PER HOST x 2 THREADS PER RANK
        NUMBER OF EQUATIONS:  258264
        NUMBER OF RHS:        1
        NUMBER OF FLOPS:      6.107e+11
        SOLVER ELAPSED TIME:  6.9s

               CONVERGENCE CHECKS FOR EQUILIBRIUM ITERATION     1


 AVERAGE FORCE                       1.50       TIME AVG. FORCE       0.918    
 LARGEST SCALED RESIDUAL FORCE      4.500E-02   AT NODE      43681   DOF  1
   INSTANCE: SH115-M-1                                                                       
  CORRESPONDING RESIDUAL FORCE      4.500E-02
 LARGEST INCREMENT OF DISP.         2.198E-05   AT NODE      19963   DOF  2
   INSTANCE: SH115-M-1                                                                       
 LARGEST CORRECTION TO DISP.        3.577E-07   AT NODE      11019   DOF  2
   INSTANCE: SH115-M-1                                                                       
          FORCE     EQUILIBRIUM NOT ACHIEVED WITHIN TOLERANCE.

 AVERAGE HEAT FLUX                   0.00       TIME AVG. HEAT FLUX   1.000E-02
 ALL HEAT FLUX RESIDUALS ARE ZERO
 ALL TEMP.    INCREMENTS ARE ZERO
 ALL CORRECTION TO TEMP.    ARE ZERO
          THERE IS ZERO HEAT FLUX EVERYWHERE
 
	UNSYMMETRIC NEW DIRECT SPARSE SOLVER RUNNING ON
 	1 HOST x 1 MPI RANK PER HOST x 2 THREADS PER RANK
        NUMBER OF EQUATIONS:  258264
        NUMBER OF RHS:        1
        NUMBER OF FLOPS:      6.107e+11
        SOLVER ELAPSED TIME:  6.9s

               CONVERGENCE CHECKS FOR EQUILIBRIUM ITERATION     2


 AVERAGE FORCE                       1.50       TIME AVG. FORCE       0.918    
 LARGEST SCALED RESIDUAL FORCE      9.595E-04   AT NODE      43654   DOF  1
   INSTANCE: SH115-M-1                                                                       
  CORRESPONDING RESIDUAL FORCE      9.595E-04
 LARGEST INCREMENT OF DISP.         2.198E-05   AT NODE      19963   DOF  2
   INSTANCE: SH115-M-1                                                                       
 LARGEST CORRECTION TO DISP.       -8.342E-09   AT NODE      14321   DOF  2
   INSTANCE: SH115-M-1                                                                       
          THE FORCE     EQUILIBRIUM EQUATIONS HAVE CONVERGED

 AVERAGE HEAT FLUX                   0.00       TIME AVG. HEAT FLUX   1.000E-02
 ALL HEAT FLUX RESIDUALS ARE ZERO
 ALL TEMP.    INCREMENTS ARE ZERO
 ALL CORRECTION TO TEMP.    ARE ZERO
          THERE IS ZERO HEAT FLUX EVERYWHERE

 MAXIMUM NON-PRESCRIBED INCREMENT IN TEMPERATURE IS    0.00    

 ITERATION SUMMARY FOR THE INCREMENT:   2 TOTAL ITERATIONS, OF WHICH
   0 ARE SEVERE DISCONTINUITY ITERATIONS AND  2 ARE EQUILIBRIUM ITERATIONS.

 TIME INCREMENT COMPLETED   10.0    ,  FRACTION OF STEP COMPLETED  0.190    
 STEP TIME COMPLETED        190.    ,  TOTAL TIME COMPLETED         190.    


  INCREMENT    20 STARTS. ATTEMPT NUMBER  1, TIME INCREMENT   10.0    
 
	UNSYMMETRIC NEW DIRECT SPARSE SOLVER RUNNING ON
 	1 HOST x 1 MPI RANK PER HOST x 2 THREADS PER RANK
        NUMBER OF EQUATIONS:  258264
        NUMBER OF RHS:        1
        NUMBER OF FLOPS:      6.107e+11
        SOLVER ELAPSED TIME:  6.9s

               CONVERGENCE CHECKS FOR EQUILIBRIUM ITERATION     1


 AVERAGE FORCE                       1.53       TIME AVG. FORCE       0.948    
 LARGEST SCALED RESIDUAL FORCE     -2.815E-02   AT NODE      41282   DOF  1
   INSTANCE: SH115-M-1                                                                       
  CORRESPONDING RESIDUAL FORCE     -2.815E-02
 LARGEST INCREMENT OF DISP.         2.207E-05   AT NODE      19963   DOF  2
   INSTANCE: SH115-M-1                                                                       
 LARGEST CORRECTION TO DISP.        3.375E-07   AT NODE      41290   DOF  2
   INSTANCE: SH115-M-1                                                                       
          FORCE     EQUILIBRIUM NOT ACHIEVED WITHIN TOLERANCE.

 AVERAGE HEAT FLUX                   0.00       TIME AVG. HEAT FLUX   1.000E-02
 ALL HEAT FLUX RESIDUALS ARE ZERO
 ALL TEMP.    INCREMENTS ARE ZERO
 ALL CORRECTION TO TEMP.    ARE ZERO
          THERE IS ZERO HEAT FLUX EVERYWHERE
 
	UNSYMMETRIC NEW DIRECT SPARSE SOLVER RUNNING ON
 	1 HOST x 1 MPI RANK PER HOST x 2 THREADS PER RANK
        NUMBER OF EQUATIONS:  258264
        NUMBER OF RHS:        1
        NUMBER OF FLOPS:      6.107e+11
        SOLVER ELAPSED TIME:  7.0s

               CONVERGENCE CHECKS FOR EQUILIBRIUM ITERATION     2


 AVERAGE FORCE                       1.53       TIME AVG. FORCE       0.948    
 LARGEST SCALED RESIDUAL FORCE      6.037E-04   AT NODE      43165   DOF  2
   INSTANCE: SH115-M-1                                                                       
  CORRESPONDING RESIDUAL FORCE      6.037E-04
 LARGEST INCREMENT OF DISP.         2.207E-05   AT NODE      19963   DOF  2
   INSTANCE: SH115-M-1                                                                       
 LARGEST CORRECTION TO DISP.       -8.777E-09   AT NODE      37490   DOF  2
   INSTANCE: SH115-M-1                                                                       
          THE FORCE     EQUILIBRIUM EQUATIONS HAVE CONVERGED

 AVERAGE HEAT FLUX                   0.00       TIME AVG. HEAT FLUX   1.000E-02
 ALL HEAT FLUX RESIDUALS ARE ZERO
 ALL TEMP.    INCREMENTS ARE ZERO
 ALL CORRECTION TO TEMP.    ARE ZERO
          THERE IS ZERO HEAT FLUX EVERYWHERE

 MAXIMUM NON-PRESCRIBED INCREMENT IN TEMPERATURE IS    0.00    

 ITERATION SUMMARY FOR THE INCREMENT:   2 TOTAL ITERATIONS, OF WHICH
   0 ARE SEVERE DISCONTINUITY ITERATIONS AND  2 ARE EQUILIBRIUM ITERATIONS.

 TIME INCREMENT COMPLETED   10.0    ,  FRACTION OF STEP COMPLETED  0.200    
 STEP TIME COMPLETED        200.    ,  TOTAL TIME COMPLETED         200.    


  INCREMENT    21 STARTS. ATTEMPT NUMBER  1, TIME INCREMENT   10.0    
 
	UNSYMMETRIC NEW DIRECT SPARSE SOLVER RUNNING ON
 	1 HOST x 1 MPI RANK PER HOST x 2 THREADS PER RANK
        NUMBER OF EQUATIONS:  258264
        NUMBER OF RHS:        1
        NUMBER OF FLOPS:      6.107e+11
        SOLVER ELAPSED TIME:  7.1s

               CONVERGENCE CHECKS FOR EQUILIBRIUM ITERATION     1


 AVERAGE FORCE                       1.55       TIME AVG. FORCE       0.977    
 LARGEST SCALED RESIDUAL FORCE     -1.882E-02   AT NODE      42631   DOF  1
   INSTANCE: SH115-M-1                                                                       
  CORRESPONDING RESIDUAL FORCE     -1.882E-02
 LARGEST INCREMENT OF DISP.         2.214E-05   AT NODE      19963   DOF  2
   INSTANCE: SH115-M-1                                                                       
 LARGEST CORRECTION TO DISP.        3.227E-07   AT NODE      43173   DOF  2
   INSTANCE: SH115-M-1                                                                       
          FORCE     EQUILIBRIUM NOT ACHIEVED WITHIN TOLERANCE.

 AVERAGE HEAT FLUX                   0.00       TIME AVG. HEAT FLUX   1.000E-02
 ALL HEAT FLUX RESIDUALS ARE ZERO
 ALL TEMP.    INCREMENTS ARE ZERO
 ALL CORRECTION TO TEMP.    ARE ZERO
          THERE IS ZERO HEAT FLUX EVERYWHERE
 
	UNSYMMETRIC NEW DIRECT SPARSE SOLVER RUNNING ON
 	1 HOST x 1 MPI RANK PER HOST x 2 THREADS PER RANK
        NUMBER OF EQUATIONS:  258264
        NUMBER OF RHS:        1
        NUMBER OF FLOPS:      6.107e+11
        SOLVER ELAPSED TIME:  7.2s

               CONVERGENCE CHECKS FOR EQUILIBRIUM ITERATION     2


 AVERAGE FORCE                       1.55       TIME AVG. FORCE       0.977    
 LARGEST SCALED RESIDUAL FORCE     -1.940E-04   AT NODE      46397   DOF  2
   INSTANCE: SH115-M-1                                                                       
  CORRESPONDING RESIDUAL FORCE     -1.940E-04
 LARGEST INCREMENT OF DISP.         2.214E-05   AT NODE      19963   DOF  2
   INSTANCE: SH115-M-1                                                                       
 LARGEST CORRECTION TO DISP.       -6.217E-09   AT NODE      42651   DOF  2
   INSTANCE: SH115-M-1                                                                       
          THE FORCE     EQUILIBRIUM EQUATIONS HAVE CONVERGED

 AVERAGE HEAT FLUX                   0.00       TIME AVG. HEAT FLUX   1.000E-02
 ALL HEAT FLUX RESIDUALS ARE ZERO
 ALL TEMP.    INCREMENTS ARE ZERO
 ALL CORRECTION TO TEMP.    ARE ZERO
          THERE IS ZERO HEAT FLUX EVERYWHERE

 MAXIMUM NON-PRESCRIBED INCREMENT IN TEMPERATURE IS    0.00    

 ITERATION SUMMARY FOR THE INCREMENT:   2 TOTAL ITERATIONS, OF WHICH
   0 ARE SEVERE DISCONTINUITY ITERATIONS AND  2 ARE EQUILIBRIUM ITERATIONS.

 TIME INCREMENT COMPLETED   10.0    ,  FRACTION OF STEP COMPLETED  0.210    
 STEP TIME COMPLETED        210.    ,  TOTAL TIME COMPLETED         210.    


  INCREMENT    22 STARTS. ATTEMPT NUMBER  1, TIME INCREMENT   10.0    
 
	UNSYMMETRIC NEW DIRECT SPARSE SOLVER RUNNING ON
 	1 HOST x 1 MPI RANK PER HOST x 2 THREADS PER RANK
        NUMBER OF EQUATIONS:  258264
        NUMBER OF RHS:        1
        NUMBER OF FLOPS:      6.107e+11
        SOLVER ELAPSED TIME:  7.1s

               CONVERGENCE CHECKS FOR EQUILIBRIUM ITERATION     1


 AVERAGE FORCE                       1.57       TIME AVG. FORCE        1.00    
 LARGEST SCALED RESIDUAL FORCE      9.119E-03   AT NODE      42789   DOF  1
   INSTANCE: SH115-M-1                                                                       
  CORRESPONDING RESIDUAL FORCE      9.119E-03
 LARGEST INCREMENT OF DISP.         2.217E-05   AT NODE      19963   DOF  2
   INSTANCE: SH115-M-1                                                                       
 LARGEST CORRECTION TO DISP.        3.460E-07   AT NODE      46939   DOF  2
   INSTANCE: SH115-M-1                                                                       
          FORCE     EQUILIBRIUM NOT ACHIEVED WITHIN TOLERANCE.

 AVERAGE HEAT FLUX                   0.00       TIME AVG. HEAT FLUX   1.000E-02
 ALL HEAT FLUX RESIDUALS ARE ZERO
 ALL TEMP.    INCREMENTS ARE ZERO
 ALL CORRECTION TO TEMP.    ARE ZERO
          THERE IS ZERO HEAT FLUX EVERYWHERE
 
	UNSYMMETRIC NEW DIRECT SPARSE SOLVER RUNNING ON
 	1 HOST x 1 MPI RANK PER HOST x 2 THREADS PER RANK
        NUMBER OF EQUATIONS:  258264
        NUMBER OF RHS:        1
        NUMBER OF FLOPS:      6.107e+11
        SOLVER ELAPSED TIME:  8.0s

               CONVERGENCE CHECKS FOR EQUILIBRIUM ITERATION     2


 AVERAGE FORCE                       1.57       TIME AVG. FORCE        1.00    
 LARGEST SCALED RESIDUAL FORCE     -1.869E-04   AT NODE      48304   DOF  1
   INSTANCE: SH115-M-1                                                                       
  CORRESPONDING RESIDUAL FORCE     -1.869E-04
 LARGEST INCREMENT OF DISP.         2.217E-05   AT NODE      19963   DOF  2
   INSTANCE: SH115-M-1                                                                       
 LARGEST CORRECTION TO DISP.        8.922E-09   AT NODE      20184   DOF  2
   INSTANCE: SH115-M-1                                                                       
          THE FORCE     EQUILIBRIUM EQUATIONS HAVE CONVERGED

 AVERAGE HEAT FLUX                   0.00       TIME AVG. HEAT FLUX   1.000E-02
 ALL HEAT FLUX RESIDUALS ARE ZERO
 ALL TEMP.    INCREMENTS ARE ZERO
 ALL CORRECTION TO TEMP.    ARE ZERO
          THERE IS ZERO HEAT FLUX EVERYWHERE

 MAXIMUM NON-PRESCRIBED INCREMENT IN TEMPERATURE IS    0.00    

 ITERATION SUMMARY FOR THE INCREMENT:   2 TOTAL ITERATIONS, OF WHICH
   0 ARE SEVERE DISCONTINUITY ITERATIONS AND  2 ARE EQUILIBRIUM ITERATIONS.

 TIME INCREMENT COMPLETED   10.0    ,  FRACTION OF STEP COMPLETED  0.220    
 STEP TIME COMPLETED        220.    ,  TOTAL TIME COMPLETED         220.    


  INCREMENT    23 STARTS. ATTEMPT NUMBER  1, TIME INCREMENT   10.0    
 
	UNSYMMETRIC NEW DIRECT SPARSE SOLVER RUNNING ON
 	1 HOST x 1 MPI RANK PER HOST x 2 THREADS PER RANK
        NUMBER OF EQUATIONS:  258264
        NUMBER OF RHS:        1
        NUMBER OF FLOPS:      6.107e+11
        SOLVER ELAPSED TIME:  7.6s

               CONVERGENCE CHECKS FOR EQUILIBRIUM ITERATION     1


 AVERAGE FORCE                       1.59       TIME AVG. FORCE        1.03    
 LARGEST SCALED RESIDUAL FORCE      1.368E-02   AT NODE      43708   DOF  2
   INSTANCE: SH115-M-1                                                                       
  CORRESPONDING RESIDUAL FORCE      1.368E-02
 LARGEST INCREMENT OF DISP.         2.220E-05   AT NODE      19963   DOF  2
   INSTANCE: SH115-M-1                                                                       
 LARGEST CORRECTION TO DISP.        2.610E-07   AT NODE      48822   DOF  2
   INSTANCE: SH115-M-1                                                                       
          FORCE     EQUILIBRIUM NOT ACHIEVED WITHIN TOLERANCE.

 AVERAGE HEAT FLUX                   0.00       TIME AVG. HEAT FLUX   1.000E-02
 ALL HEAT FLUX RESIDUALS ARE ZERO
 ALL TEMP.    INCREMENTS ARE ZERO
 ALL CORRECTION TO TEMP.    ARE ZERO
          THERE IS ZERO HEAT FLUX EVERYWHERE
 
	UNSYMMETRIC NEW DIRECT SPARSE SOLVER RUNNING ON
 	1 HOST x 1 MPI RANK PER HOST x 2 THREADS PER RANK
        NUMBER OF EQUATIONS:  258264
        NUMBER OF RHS:        1
        NUMBER OF FLOPS:      6.107e+11
        SOLVER ELAPSED TIME:  7.1s

               CONVERGENCE CHECKS FOR EQUILIBRIUM ITERATION     2


 AVERAGE FORCE                       1.59       TIME AVG. FORCE        1.03    
 LARGEST SCALED RESIDUAL FORCE      1.908E-04   AT NODE      43708   DOF  1
   INSTANCE: SH115-M-1                                                                       
  CORRESPONDING RESIDUAL FORCE      1.908E-04
 LARGEST INCREMENT OF DISP.         2.220E-05   AT NODE      19963   DOF  2
[...]
   INSTANCE: SH115-M-1                                                                       
          THE FORCE     EQUILIBRIUM EQUATIONS HAVE CONVERGED

 AVERAGE HEAT FLUX                   0.00       TIME AVG. HEAT FLUX   1.000E-02
 ALL HEAT FLUX RESIDUALS ARE ZERO
 ALL TEMP.    INCREMENTS ARE ZERO
 ALL CORRECTION TO TEMP.    ARE ZERO
          THERE IS ZERO HEAT FLUX EVERYWHERE

 MAXIMUM NON-PRESCRIBED INCREMENT IN TEMPERATURE IS    0.00    

 ITERATION SUMMARY FOR THE INCREMENT:   3 TOTAL ITERATIONS, OF WHICH
   0 ARE SEVERE DISCONTINUITY ITERATIONS AND  3 ARE EQUILIBRIUM ITERATIONS.

 TIME INCREMENT COMPLETED   10.0    ,  FRACTION OF STEP COMPLETED  0.960    
 STEP TIME COMPLETED        960.    ,  TOTAL TIME COMPLETED         960.    


  INCREMENT    97 STARTS. ATTEMPT NUMBER  1, TIME INCREMENT   10.0    
 
	UNSYMMETRIC NEW DIRECT SPARSE SOLVER RUNNING ON
 	1 HOST x 1 MPI RANK PER HOST x 2 THREADS PER RANK
        NUMBER OF EQUATIONS:  258264
        NUMBER OF RHS:        1
        NUMBER OF FLOPS:      6.107e+11
        SOLVER ELAPSED TIME:  6.4s

               CONVERGENCE CHECKS FOR EQUILIBRIUM ITERATION     1


 AVERAGE FORCE                       1.88       TIME AVG. FORCE        1.61    
 LARGEST SCALED RESIDUAL FORCE     -8.043E-03   AT NODE      48870   DOF  1
   INSTANCE: SH115-M-1                                                                       
  CORRESPONDING RESIDUAL FORCE     -8.043E-03
 LARGEST INCREMENT OF DISP.         2.241E-05   AT NODE      19963   DOF  2
   INSTANCE: SH115-M-1                                                                       
 LARGEST CORRECTION TO DISP.       -1.589E-07   AT NODE      12490   DOF  2
   INSTANCE: SH115-M-1                                                                       
          THE FORCE     EQUILIBRIUM EQUATIONS HAVE CONVERGED

 AVERAGE HEAT FLUX                   0.00       TIME AVG. HEAT FLUX   1.000E-02
 ALL HEAT FLUX RESIDUALS ARE ZERO
 ALL TEMP.    INCREMENTS ARE ZERO
 ALL CORRECTION TO TEMP.    ARE ZERO
          THERE IS ZERO HEAT FLUX EVERYWHERE

 MAXIMUM NON-PRESCRIBED INCREMENT IN TEMPERATURE IS    0.00    

 ITERATION SUMMARY FOR THE INCREMENT:   1 TOTAL ITERATIONS, OF WHICH
   0 ARE SEVERE DISCONTINUITY ITERATIONS AND  1 ARE EQUILIBRIUM ITERATIONS.

 TIME INCREMENT COMPLETED   10.0    ,  FRACTION OF STEP COMPLETED  0.970    
 STEP TIME COMPLETED        970.    ,  TOTAL TIME COMPLETED         970.    


  INCREMENT    98 STARTS. ATTEMPT NUMBER  1, TIME INCREMENT   10.0    
 
	UNSYMMETRIC NEW DIRECT SPARSE SOLVER RUNNING ON
 	1 HOST x 1 MPI RANK PER HOST x 2 THREADS PER RANK
        NUMBER OF EQUATIONS:  258264
        NUMBER OF RHS:        1
        NUMBER OF FLOPS:      6.107e+11
        SOLVER ELAPSED TIME:  6.6s

               CONVERGENCE CHECKS FOR EQUILIBRIUM ITERATION     1


 AVERAGE FORCE                       1.88       TIME AVG. FORCE        1.61    
 LARGEST SCALED RESIDUAL FORCE     -6.271E-02   AT NODE      46446   DOF  1
   INSTANCE: SH115-M-1                                                                       
  CORRESPONDING RESIDUAL FORCE     -6.271E-02
 LARGEST INCREMENT OF DISP.         2.196E-05   AT NODE      19963   DOF  2
   INSTANCE: SH115-M-1                                                                       
 LARGEST CORRECTION TO DISP.       -1.021E-06   AT NODE      10545   DOF  2
   INSTANCE: SH115-M-1                                                                       
          FORCE     EQUILIBRIUM NOT ACHIEVED WITHIN TOLERANCE.

 AVERAGE HEAT FLUX                   0.00       TIME AVG. HEAT FLUX   1.000E-02
 ALL HEAT FLUX RESIDUALS ARE ZERO
 ALL TEMP.    INCREMENTS ARE ZERO
 ALL CORRECTION TO TEMP.    ARE ZERO
          THERE IS ZERO HEAT FLUX EVERYWHERE
 
	UNSYMMETRIC NEW DIRECT SPARSE SOLVER RUNNING ON
 	1 HOST x 1 MPI RANK PER HOST x 2 THREADS PER RANK
        NUMBER OF EQUATIONS:  258264
        NUMBER OF RHS:        1
        NUMBER OF FLOPS:      6.107e+11
        SOLVER ELAPSED TIME:  6.5s

               CONVERGENCE CHECKS FOR EQUILIBRIUM ITERATION     2


 AVERAGE FORCE                       1.88       TIME AVG. FORCE        1.61    
 LARGEST SCALED RESIDUAL FORCE      3.420E-02   AT NODE      40797   DOF  1
   INSTANCE: SH115-M-1                                                                       
  CORRESPONDING RESIDUAL FORCE      3.420E-02
 LARGEST INCREMENT OF DISP.         2.228E-05   AT NODE      19963   DOF  2
   INSTANCE: SH115-M-1                                                                       
 LARGEST CORRECTION TO DISP.        7.131E-07   AT NODE      10521   DOF  2
   INSTANCE: SH115-M-1                                                                       
          FORCE     EQUILIBRIUM NOT ACHIEVED WITHIN TOLERANCE.

 AVERAGE HEAT FLUX                   0.00       TIME AVG. HEAT FLUX   1.000E-02
 ALL HEAT FLUX RESIDUALS ARE ZERO
 ALL TEMP.    INCREMENTS ARE ZERO
 ALL CORRECTION TO TEMP.    ARE ZERO
          THERE IS ZERO HEAT FLUX EVERYWHERE
 
	UNSYMMETRIC NEW DIRECT SPARSE SOLVER RUNNING ON
 	1 HOST x 1 MPI RANK PER HOST x 2 THREADS PER RANK
        NUMBER OF EQUATIONS:  258264
        NUMBER OF RHS:        1
        NUMBER OF FLOPS:      6.107e+11
        SOLVER ELAPSED TIME:  6.7s

               CONVERGENCE CHECKS FOR EQUILIBRIUM ITERATION     3


 AVERAGE FORCE                       1.88       TIME AVG. FORCE        1.61    
 LARGEST SCALED RESIDUAL FORCE     -9.996E-03   AT NODE      44563   DOF  1
   INSTANCE: SH115-M-1                                                                       
  CORRESPONDING RESIDUAL FORCE     -9.996E-03
 LARGEST INCREMENT OF DISP.         2.216E-05   AT NODE      19963   DOF  2
   INSTANCE: SH115-M-1                                                                       
 LARGEST CORRECTION TO DISP.       -2.622E-07   AT NODE      10521   DOF  2
   INSTANCE: SH115-M-1                                                                       
          FORCE     EQUILIBRIUM NOT ACHIEVED WITHIN TOLERANCE.

 AVERAGE HEAT FLUX                   0.00       TIME AVG. HEAT FLUX   1.000E-02
 ALL HEAT FLUX RESIDUALS ARE ZERO
 ALL TEMP.    INCREMENTS ARE ZERO
 ALL CORRECTION TO TEMP.    ARE ZERO
          THERE IS ZERO HEAT FLUX EVERYWHERE
 
	UNSYMMETRIC NEW DIRECT SPARSE SOLVER RUNNING ON
 	1 HOST x 1 MPI RANK PER HOST x 2 THREADS PER RANK
        NUMBER OF EQUATIONS:  258264
        NUMBER OF RHS:        1
        NUMBER OF FLOPS:      6.107e+11
        SOLVER ELAPSED TIME:  6.6s

               CONVERGENCE CHECKS FOR EQUILIBRIUM ITERATION     4


 AVERAGE FORCE                       1.88       TIME AVG. FORCE        1.61    
 LARGEST SCALED RESIDUAL FORCE      2.864E-03   AT NODE      44563   DOF  1
   INSTANCE: SH115-M-1                                                                       
  CORRESPONDING RESIDUAL FORCE      2.864E-03
 LARGEST INCREMENT OF DISP.         2.219E-05   AT NODE      19963   DOF  2
   INSTANCE: SH115-M-1                                                                       
 LARGEST CORRECTION TO DISP.        6.835E-08   AT NODE      10521   DOF  2
   INSTANCE: SH115-M-1                                                                       
          THE FORCE     EQUILIBRIUM EQUATIONS HAVE CONVERGED

 AVERAGE HEAT FLUX                   0.00       TIME AVG. HEAT FLUX   1.000E-02
 ALL HEAT FLUX RESIDUALS ARE ZERO
 ALL TEMP.    INCREMENTS ARE ZERO
 ALL CORRECTION TO TEMP.    ARE ZERO
          THERE IS ZERO HEAT FLUX EVERYWHERE

 MAXIMUM NON-PRESCRIBED INCREMENT IN TEMPERATURE IS    0.00    

 ITERATION SUMMARY FOR THE INCREMENT:   4 TOTAL ITERATIONS, OF WHICH
   0 ARE SEVERE DISCONTINUITY ITERATIONS AND  4 ARE EQUILIBRIUM ITERATIONS.

 TIME INCREMENT COMPLETED   10.0    ,  FRACTION OF STEP COMPLETED  0.980    
 STEP TIME COMPLETED        980.    ,  TOTAL TIME COMPLETED         980.    


  INCREMENT    99 STARTS. ATTEMPT NUMBER  1, TIME INCREMENT   10.0    
 
	UNSYMMETRIC NEW DIRECT SPARSE SOLVER RUNNING ON
 	1 HOST x 1 MPI RANK PER HOST x 2 THREADS PER RANK
        NUMBER OF EQUATIONS:  258264
        NUMBER OF RHS:        1
        NUMBER OF FLOPS:      6.107e+11
        SOLVER ELAPSED TIME:  6.8s

               CONVERGENCE CHECKS FOR EQUILIBRIUM ITERATION     1


 AVERAGE FORCE                       1.88       TIME AVG. FORCE        1.62    
 LARGEST SCALED RESIDUAL FORCE      3.615E-02   AT NODE      42680   DOF  1
   INSTANCE: SH115-M-1                                                                       
  CORRESPONDING RESIDUAL FORCE      3.615E-02
 LARGEST INCREMENT OF DISP.         2.250E-05   AT NODE      19963   DOF  2
   INSTANCE: SH115-M-1                                                                       
 LARGEST CORRECTION TO DISP.        7.159E-07   AT NODE      42680   DOF  2
   INSTANCE: SH115-M-1                                                                       
          FORCE     EQUILIBRIUM NOT ACHIEVED WITHIN TOLERANCE.

 AVERAGE HEAT FLUX                   0.00       TIME AVG. HEAT FLUX   1.000E-02
 ALL HEAT FLUX RESIDUALS ARE ZERO
 ALL TEMP.    INCREMENTS ARE ZERO
 ALL CORRECTION TO TEMP.    ARE ZERO
          THERE IS ZERO HEAT FLUX EVERYWHERE
 
	UNSYMMETRIC NEW DIRECT SPARSE SOLVER RUNNING ON
 	1 HOST x 1 MPI RANK PER HOST x 2 THREADS PER RANK
        NUMBER OF EQUATIONS:  258264
        NUMBER OF RHS:        1
        NUMBER OF FLOPS:      6.107e+11
        SOLVER ELAPSED TIME:  6.6s

               CONVERGENCE CHECKS FOR EQUILIBRIUM ITERATION     2


 AVERAGE FORCE                       1.88       TIME AVG. FORCE        1.62    
 LARGEST SCALED RESIDUAL FORCE     -3.923E-02   AT NODE      48329   DOF  1
   INSTANCE: SH115-M-1                                                                       
  CORRESPONDING RESIDUAL FORCE     -3.923E-02
 LARGEST INCREMENT OF DISP.         2.207E-05   AT NODE      19963   DOF  2
   INSTANCE: SH115-M-1                                                                       
 LARGEST CORRECTION TO DISP.       -9.760E-07   AT NODE      10521   DOF  2
   INSTANCE: SH115-M-1                                                                       
          FORCE     EQUILIBRIUM NOT ACHIEVED WITHIN TOLERANCE.

 AVERAGE HEAT FLUX                   0.00       TIME AVG. HEAT FLUX   1.000E-02
 ALL HEAT FLUX RESIDUALS ARE ZERO
 ALL TEMP.    INCREMENTS ARE ZERO
 ALL CORRECTION TO TEMP.    ARE ZERO
          THERE IS ZERO HEAT FLUX EVERYWHERE
 
	UNSYMMETRIC NEW DIRECT SPARSE SOLVER RUNNING ON
 	1 HOST x 1 MPI RANK PER HOST x 2 THREADS PER RANK
        NUMBER OF EQUATIONS:  258264
        NUMBER OF RHS:        1
        NUMBER OF FLOPS:      6.107e+11
        SOLVER ELAPSED TIME:  6.7s

               CONVERGENCE CHECKS FOR EQUILIBRIUM ITERATION     3


 AVERAGE FORCE                       1.88       TIME AVG. FORCE        1.62    
 LARGEST SCALED RESIDUAL FORCE      1.449E-02   AT NODE      40797   DOF  1
   INSTANCE: SH115-M-1                                                                       
  CORRESPONDING RESIDUAL FORCE      1.449E-02
 LARGEST INCREMENT OF DISP.         2.222E-05   AT NODE      19963   DOF  2
   INSTANCE: SH115-M-1                                                                       
 LARGEST CORRECTION TO DISP.        3.256E-07   AT NODE      10521   DOF  2
   INSTANCE: SH115-M-1                                                                       
          FORCE     EQUILIBRIUM NOT ACHIEVED WITHIN TOLERANCE.

 AVERAGE HEAT FLUX                   0.00       TIME AVG. HEAT FLUX   1.000E-02
 ALL HEAT FLUX RESIDUALS ARE ZERO
 ALL TEMP.    INCREMENTS ARE ZERO
 ALL CORRECTION TO TEMP.    ARE ZERO
          THERE IS ZERO HEAT FLUX EVERYWHERE
 
	UNSYMMETRIC NEW DIRECT SPARSE SOLVER RUNNING ON
 	1 HOST x 1 MPI RANK PER HOST x 2 THREADS PER RANK
        NUMBER OF EQUATIONS:  258264
        NUMBER OF RHS:        1
        NUMBER OF FLOPS:      6.107e+11
        SOLVER ELAPSED TIME:  6.7s

               CONVERGENCE CHECKS FOR EQUILIBRIUM ITERATION     4


 AVERAGE FORCE                       1.88       TIME AVG. FORCE        1.62    
 LARGEST SCALED RESIDUAL FORCE     -5.444E-03   AT NODE      40797   DOF  1
   INSTANCE: SH115-M-1                                                                       
  CORRESPONDING RESIDUAL FORCE     -5.444E-03
 LARGEST INCREMENT OF DISP.         2.216E-05   AT NODE      19963   DOF  2
   INSTANCE: SH115-M-1                                                                       
 LARGEST CORRECTION TO DISP.       -1.369E-07   AT NODE      10521   DOF  2
   INSTANCE: SH115-M-1                                                                       
          THE FORCE     EQUILIBRIUM EQUATIONS HAVE CONVERGED

 AVERAGE HEAT FLUX                   0.00       TIME AVG. HEAT FLUX   1.000E-02
 ALL HEAT FLUX RESIDUALS ARE ZERO
 ALL TEMP.    INCREMENTS ARE ZERO
 ALL CORRECTION TO TEMP.    ARE ZERO
          THERE IS ZERO HEAT FLUX EVERYWHERE

 MAXIMUM NON-PRESCRIBED INCREMENT IN TEMPERATURE IS    0.00    

 ITERATION SUMMARY FOR THE INCREMENT:   4 TOTAL ITERATIONS, OF WHICH
   0 ARE SEVERE DISCONTINUITY ITERATIONS AND  4 ARE EQUILIBRIUM ITERATIONS.

 TIME INCREMENT COMPLETED   10.0    ,  FRACTION OF STEP COMPLETED  0.990    
 STEP TIME COMPLETED        990.    ,  TOTAL TIME COMPLETED         990.    


  INCREMENT   100 STARTS. ATTEMPT NUMBER  1, TIME INCREMENT   10.0    
 
	UNSYMMETRIC NEW DIRECT SPARSE SOLVER RUNNING ON
 	1 HOST x 1 MPI RANK PER HOST x 2 THREADS PER RANK
        NUMBER OF EQUATIONS:  258264
        NUMBER OF RHS:        1
        NUMBER OF FLOPS:      6.107e+11
        SOLVER ELAPSED TIME:  6.8s

               CONVERGENCE CHECKS FOR EQUILIBRIUM ITERATION     1


 AVERAGE FORCE                       1.88       TIME AVG. FORCE        1.62    
 LARGEST SCALED RESIDUAL FORCE      1.796E-02   AT NODE      46464   DOF  1
   INSTANCE: SH115-M-1                                                                       
  CORRESPONDING RESIDUAL FORCE      1.796E-02
 LARGEST INCREMENT OF DISP.         2.229E-05   AT NODE      19963   DOF  2
   INSTANCE: SH115-M-1                                                                       
 LARGEST CORRECTION TO DISP.       -3.896E-07   AT NODE      43222   DOF  2
   INSTANCE: SH115-M-1                                                                       
          FORCE     EQUILIBRIUM NOT ACHIEVED WITHIN TOLERANCE.

 AVERAGE HEAT FLUX                   0.00       TIME AVG. HEAT FLUX   1.000E-02
 ALL HEAT FLUX RESIDUALS ARE ZERO
 ALL TEMP.    INCREMENTS ARE ZERO
 ALL CORRECTION TO TEMP.    ARE ZERO
          THERE IS ZERO HEAT FLUX EVERYWHERE
 
	UNSYMMETRIC NEW DIRECT SPARSE SOLVER RUNNING ON
 	1 HOST x 1 MPI RANK PER HOST x 2 THREADS PER RANK
        NUMBER OF EQUATIONS:  258264
        NUMBER OF RHS:        1
        NUMBER OF FLOPS:      6.107e+11
        SOLVER ELAPSED TIME:  6.8s

               CONVERGENCE CHECKS FOR EQUILIBRIUM ITERATION     2


 AVERAGE FORCE                       1.88       TIME AVG. FORCE        1.62    
 LARGEST SCALED RESIDUAL FORCE     -3.201E-02   AT NODE      48329   DOF  1
   INSTANCE: SH115-M-1                                                                       
  CORRESPONDING RESIDUAL FORCE     -3.201E-02
 LARGEST INCREMENT OF DISP.         2.196E-05   AT NODE      19963   DOF  2
   INSTANCE: SH115-M-1                                                                       
 LARGEST CORRECTION TO DISP.       -7.495E-07   AT NODE      12429   DOF  2
   INSTANCE: SH115-M-1                                                                       
          FORCE     EQUILIBRIUM NOT ACHIEVED WITHIN TOLERANCE.

 AVERAGE HEAT FLUX                   0.00       TIME AVG. HEAT FLUX   1.000E-02
 ALL HEAT FLUX RESIDUALS ARE ZERO
 ALL TEMP.    INCREMENTS ARE ZERO
 ALL CORRECTION TO TEMP.    ARE ZERO
          THERE IS ZERO HEAT FLUX EVERYWHERE
 
	UNSYMMETRIC NEW DIRECT SPARSE SOLVER RUNNING ON
 	1 HOST x 1 MPI RANK PER HOST x 2 THREADS PER RANK
        NUMBER OF EQUATIONS:  258264
        NUMBER OF RHS:        1
        NUMBER OF FLOPS:      6.107e+11
        SOLVER ELAPSED TIME:  6.6s

               CONVERGENCE CHECKS FOR EQUILIBRIUM ITERATION     3


 AVERAGE FORCE                       1.88       TIME AVG. FORCE        1.62    
 LARGEST SCALED RESIDUAL FORCE      1.449E-02   AT NODE      46446   DOF  1
   INSTANCE: SH115-M-1                                                                       
  CORRESPONDING RESIDUAL FORCE      1.449E-02
 LARGEST INCREMENT OF DISP.         2.211E-05   AT NODE      19963   DOF  2
   INSTANCE: SH115-M-1                                                                       
 LARGEST CORRECTION TO DISP.        3.311E-07   AT NODE      10521   DOF  2
   INSTANCE: SH115-M-1                                                                       
          FORCE     EQUILIBRIUM NOT ACHIEVED WITHIN TOLERANCE.

 AVERAGE HEAT FLUX                   0.00       TIME AVG. HEAT FLUX   1.000E-02
 ALL HEAT FLUX RESIDUALS ARE ZERO
 ALL TEMP.    INCREMENTS ARE ZERO
 ALL CORRECTION TO TEMP.    ARE ZERO
          THERE IS ZERO HEAT FLUX EVERYWHERE
 
	UNSYMMETRIC NEW DIRECT SPARSE SOLVER RUNNING ON
 	1 HOST x 1 MPI RANK PER HOST x 2 THREADS PER RANK
        NUMBER OF EQUATIONS:  258264
        NUMBER OF RHS:        1
        NUMBER OF FLOPS:      6.107e+11
        SOLVER ELAPSED TIME:  6.8s

               CONVERGENCE CHECKS FOR EQUILIBRIUM ITERATION     4


 AVERAGE FORCE                       1.88       TIME AVG. FORCE        1.62    
 LARGEST SCALED RESIDUAL FORCE     -6.425E-03   AT NODE      46446   DOF  1
   INSTANCE: SH115-M-1                                                                       
  CORRESPONDING RESIDUAL FORCE     -6.425E-03
 LARGEST INCREMENT OF DISP.         2.204E-05   AT NODE      19963   DOF  2
   INSTANCE: SH115-M-1                                                                       
 LARGEST CORRECTION TO DISP.       -1.617E-07   AT NODE      10521   DOF  2
   INSTANCE: SH115-M-1                                                                       
          THE FORCE     EQUILIBRIUM EQUATIONS HAVE CONVERGED

 AVERAGE HEAT FLUX                   0.00       TIME AVG. HEAT FLUX   1.000E-02
 ALL HEAT FLUX RESIDUALS ARE ZERO
 ALL TEMP.    INCREMENTS ARE ZERO
 ALL CORRECTION TO TEMP.    ARE ZERO
          THERE IS ZERO HEAT FLUX EVERYWHERE

 MAXIMUM NON-PRESCRIBED INCREMENT IN TEMPERATURE IS    0.00    

 ITERATION SUMMARY FOR THE INCREMENT:   4 TOTAL ITERATIONS, OF WHICH
   0 ARE SEVERE DISCONTINUITY ITERATIONS AND  4 ARE EQUILIBRIUM ITERATIONS.

 TIME INCREMENT COMPLETED   10.0    ,  FRACTION OF STEP COMPLETED   1.00    
 STEP TIME COMPLETED       1.000E+03,  TOTAL TIME COMPLETED        1.000E+03


          THE ANALYSIS HAS BEEN COMPLETED



     ANALYSIS SUMMARY:
     TOTAL OF        100  INCREMENTS
                       0  CUTBACKS IN AUTOMATIC INCREMENTATION
                     214  ITERATIONS INCLUDING CONTACT ITERATIONS IF PRESENT
                     214  PASSES THROUGH THE EQUATION SOLVER OF WHICH 
                     214  INVOLVE MATRIX DECOMPOSITION, INCLUDING
                       0  DECOMPOSITION(S) OF THE MASS MATRIX
                       1  REORDERING OF EQUATIONS TO MINIMIZE WAVEFRONT
                       0  ADDITIONAL RESIDUAL EVALUATIONS FOR LINE SEARCHES
                       0  ADDITIONAL OPERATOR EVALUATIONS FOR LINE SEARCHES
                       6  WARNING MESSAGES DURING USER INPUT PROCESSING
                       0  WARNING MESSAGES DURING ANALYSIS
                       0  ANALYSIS WARNINGS ARE NUMERICAL PROBLEM MESSAGES
                       0  ANALYSIS WARNINGS ARE NEGATIVE EIGENVALUE MESSAGES
                       0  ERROR MESSAGES



     JOB TIME SUMMARY
       USER TIME (SEC)      =     1.54E+03
       SYSTEM TIME (SEC)    =      30.    
       TOTAL CPU TIME (SEC) =     1.57E+03
       WALLCLOCK TIME (SEC) =         2302
       MEMORY PEAK (GB)     =            1
