1

   Abaqus 2023.HF4                                  Date 01-Nov-2024   Time 13:20:01
   For use by AALTO UNIVERSITY under license from Dassault Systemes or its subsidiary.

                                                                                 
                                                                                 
 STEP    1     INCREMENT     1     STEP TIME    0.00    


                        S T E P       1     C O U P L E D - T E M P E R A T U R E - D I S P L A C E M E N T   A N A L Y S I S


                                                                                          

          FIXED TIME INCREMENTS
          TIME INCREMENT IS                                    1.440E+03
          TIME PERIOD IS                                       7.200E+03

          CREEP AND SWELLING EFFECTS ARE OMITTED IN THIS STEP
          THE RATE DEPENDENCY WILL BE CONSIDERED IN THIS STEP

          CREEP AND SWELLING EFFECTS WILL BE IGNORED.

 CONVERGENCE TOLERANCE PARAMETERS FOR FORCE    
     CRITERION FOR RESIDUAL FORCE     FOR A NONLINEAR PROBLEM          5.000E-03
     CRITERION FOR DISP.    CORRECTION IN A NONLINEAR PROBLEM          1.000E-02
     INITIAL VALUE OF TIME AVERAGE FORCE                               1.000E-02
     AVERAGE FORCE     IS TIME AVERAGE FORCE    
     ALTERNATE CRIT. FOR RESIDUAL FORCE     FOR A NONLINEAR PROBLEM    2.000E-02
     CRITERION FOR ZERO FORCE     RELATIVE TO TIME AVRG. FORCE         1.000E-05
     CRITERION FOR RESIDUAL FORCE     WHEN THERE IS ZERO FLUX          1.000E-05
     CRITERION FOR DISP.    CORRECTION WHEN THERE IS ZERO FLUX         1.000E-03
     CRITERION FOR RESIDUAL FORCE     FOR A LINEAR INCREMENT           1.000E-08
     FIELD CONVERSION RATIO                                             1.00    
     CRITERION FOR ZERO FORCE     REL. TO TIME AVRG. MAX. FORCE        1.000E-05
     CRITERION FOR ZERO DISP.    RELATIVE TO CHARACTERISTIC LENGTH     1.000E-08

 CONVERGENCE TOLERANCE PARAMETERS FOR HEAT FLUX
     CRITERION FOR RESIDUAL HEAT FLUX FOR A NONLINEAR PROBLEM          5.000E-03
     CRITERION FOR TEMP.    CORRECTION IN A NONLINEAR PROBLEM          1.000E-02
     INITIAL VALUE OF TIME AVERAGE HEAT FLUX                           1.000E-02
     AVERAGE HEAT FLUX IS TIME AVERAGE HEAT FLUX
     ALTERNATE CRIT. FOR RESIDUAL HEAT FLUX FOR A NONLINEAR PROBLEM    2.000E-02
     CRITERION FOR ZERO HEAT FLUX RELATIVE TO TIME AVRG. HEAT FLUX     1.000E-05
     CRITERION FOR RESIDUAL HEAT FLUX WHEN THERE IS ZERO FLUX          1.000E-05
     CRITERION FOR TEMP.    CORRECTION WHEN THERE IS ZERO FLUX         1.000E-03
     CRITERION FOR RESIDUAL HEAT FLUX FOR A LINEAR INCREMENT           1.000E-08
     FIELD CONVERSION RATIO                                             1.00    
     CRITERION FOR ZERO HEAT FLUX REL. TO TIME AVRG. MAX. HEAT FLUX    1.000E-05

     VOLUMETRIC STRAIN COMPATIBILITY TOLERANCE FOR HYBRID SOLIDS       1.000E-05
     AXIAL STRAIN COMPATIBILITY TOLERANCE FOR HYBRID BEAMS             1.000E-05
     TRANS. SHEAR STRAIN COMPATIBILITY TOLERANCE FOR HYBRID BEAMS      1.000E-05
     SOFT CONTACT CONSTRAINT COMPATIBILITY TOLERANCE FOR P>P0          5.000E-03
     SOFT CONTACT CONSTRAINT COMPATIBILITY TOLERANCE FOR P=0.0         0.100    
     CONTACT FORCE ERROR TOLERANCE FOR CONVERT SDI=YES                 1.00    
     DISPLACEMENT COMPATIBILITY TOLERANCE FOR DCOUP ELEMENTS           1.000E-05
     ROTATION COMPATIBILITY TOLERANCE FOR DCOUP ELEMENTS               1.000E-05

 EQUILIBRIUM WILL BE CHECKED FOR SEVERE DISCONTINUITY ITERATIONS

 ITERATION CONTROL PARAMETERS:
     FIRST EQUILIBRIUM ITERATION FOR CONSECUTIVE DIVERGENCE CHECK              4
     EQUILIBRIUM ITERATION AFTER WHICH ALTERNATE RESIDUAL IS USED              9
     MAXIMUM EQUILIBRIUM ITERATIONS ALLOWED                                   16
     MAXIMUM ITERATIONS FOR SEVERE DISCONTINUITIES                            12
     GLOBAL STABILIZATION CONTROL IS NOT USED

          PRINT OF INCREMENT NUMBER, TIME, ETC., EVERY    1  INCREMENTS

     THE MAXIMUM NUMBER OF INCREMENTS IN THIS STEP IS                 1000000

          LARGE DISPLACEMENT THEORY WILL BE USED

          UNSYMMETRIC MATRIX STORAGE AND SOLUTION WILL BE USED

     LINEAR EXTRAPOLATION WILL BE USED

     CHARACTERISTIC ELEMENT LENGTH     1.962E-04

     DETAILS REGARDING ACTUAL SOLUTION WAVEFRONT REQUESTED

     DETAILED OUTPUT OF DIAGNOSTICS TO DATABASE REQUESTED

     PRINT OF INCREMENT NUMBER, TIME, ETC., TO THE MESSAGE FILE EVERY     1  INCREMENTS

     ELEMENT OPERATIONS WILL BE CARRIED OUT IN PARALLEL USING   6 THREADS ON 1 DOMAIN

     PARALLEL CONTACT TRACKING ENABLED


     COLLECTING MODEL CONSTRAINT INFORMATION FOR OVERCONSTRAINT CHECKS

     COLLECTING STEP CONSTRAINT INFORMATION FOR OVERCONSTRAINT CHECKS


  INCREMENT     1 STARTS. ATTEMPT NUMBER  1, TIME INCREMENT  1.440E+03
 
     INITIAL ELEMENT LOAD BALANCE
            DOMAIN    1     THREAD    NUMBER OF ELEMENTS
                              1            5808
                              2            5854
                              3            5736
                              4            5744
                              5            5888
                              6            5864
 
	UNSYMMETRIC NEW DIRECT SPARSE SOLVER RUNNING ON
 	1 HOST x 1 MPI RANK PER HOST x 6 THREADS PER RANK
        NUMBER OF EQUATIONS:  174160
        NUMBER OF RHS:        1
        NUMBER OF FLOPS:      2.375e+11
        SOLVER ELAPSED TIME:  5.5s

               CONVERGENCE CHECKS FOR EQUILIBRIUM ITERATION     1


 AVERAGE FORCE                       0.00       TIME AVG. FORCE       1.000E-02
 ALL FORCE     RESIDUALS ARE ZERO
 ALL DISP.    INCREMENTS ARE ZERO
 ALL CORRECTION TO DISP.    ARE ZERO
          THERE IS ZERO FORCE     EVERYWHERE

 AVERAGE HEAT FLUX                  7.620E-14   TIME AVG. HEAT FLUX   1.000E-02
 LARGEST RESIDUAL HEAT FLUX         1.184E-15   AT NODE      43165   DOF 11
   INSTANCE: CHD2                                                                            
 LARGEST INCREMENT OF TEMP.          8.72       AT NODE          1   DOF 11
   INSTANCE: CHD2                                                                            
 LARGEST CORRECTION TO TEMP.         8.72       AT NODE          1   DOF 11
   INSTANCE: CHD2                                                                            
          THERE IS ZERO HEAT FLUX EVERYWHERE
 

 ***WARNING: THERE IS ZERO HEAT FLUX EVERYWHERE IN THE MODEL BASED ON THE 
             DEFAULT CRITERION. PLEASE CHECK THE VALUE OF THE AVERAGE HEAT FLUX 
             DURING THE CURRENT ITERATION TO VERIFY THAT THE HEAT FLUX IS SMALL 
             ENOUGH TO BE TREATED AS ZERO. IF NOT, PLEASE USE THE SOLUTION 
             CONTROLS TO RESET THE CRITERION FOR ZERO HEAT FLUX.

 ITERATION SUMMARY FOR THE INCREMENT:   1 TOTAL ITERATIONS, OF WHICH
   0 ARE SEVERE DISCONTINUITY ITERATIONS AND  1 ARE EQUILIBRIUM ITERATIONS.

 TIME INCREMENT COMPLETED  1.440E+03,  FRACTION OF STEP COMPLETED  0.200    
 STEP TIME COMPLETED       1.440E+03,  TOTAL TIME COMPLETED        1.440E+03


  INCREMENT     2 STARTS. ATTEMPT NUMBER  1, TIME INCREMENT  1.440E+03
 
	UNSYMMETRIC NEW DIRECT SPARSE SOLVER RUNNING ON
 	1 HOST x 1 MPI RANK PER HOST x 6 THREADS PER RANK
        NUMBER OF EQUATIONS:  174160
        NUMBER OF RHS:        1
        NUMBER OF FLOPS:      2.375e+11
        SOLVER ELAPSED TIME:  5.7s

               CONVERGENCE CHECKS FOR EQUILIBRIUM ITERATION     1


 AVERAGE FORCE                       0.00       TIME AVG. FORCE       1.000E-02
 ALL FORCE     RESIDUALS ARE ZERO
 ALL DISP.    INCREMENTS ARE ZERO
 ALL CORRECTION TO DISP.    ARE ZERO
          THERE IS ZERO FORCE     EVERYWHERE

 AVERAGE HEAT FLUX                  1.442E-14   TIME AVG. HEAT FLUX   1.000E-02
 LARGEST RESIDUAL HEAT FLUX        -1.839E-16   AT NODE      43096   DOF 11
   INSTANCE: CHD2                                                                            
 LARGEST INCREMENT OF TEMP.          1.94       AT NODE      34991   DOF 11
   INSTANCE: CHD2                                                                            
 LARGEST CORRECTION TO TEMP.        -8.72       AT NODE          1   DOF 11
   INSTANCE: CHD2                                                                            
          THERE IS ZERO HEAT FLUX EVERYWHERE
 

 ***WARNING: THERE IS ZERO HEAT FLUX EVERYWHERE IN THE MODEL BASED ON THE 
             DEFAULT CRITERION. PLEASE CHECK THE VALUE OF THE AVERAGE HEAT FLUX 
             DURING THE CURRENT ITERATION TO VERIFY THAT THE HEAT FLUX IS SMALL 
             ENOUGH TO BE TREATED AS ZERO. IF NOT, PLEASE USE THE SOLUTION 
             CONTROLS TO RESET THE CRITERION FOR ZERO HEAT FLUX.

 ITERATION SUMMARY FOR THE INCREMENT:   1 TOTAL ITERATIONS, OF WHICH
   0 ARE SEVERE DISCONTINUITY ITERATIONS AND  1 ARE EQUILIBRIUM ITERATIONS.

 TIME INCREMENT COMPLETED  1.440E+03,  FRACTION OF STEP COMPLETED  0.400    
 STEP TIME COMPLETED       2.880E+03,  TOTAL TIME COMPLETED        2.880E+03


  INCREMENT     3 STARTS. ATTEMPT NUMBER  1, TIME INCREMENT  1.440E+03
 
	UNSYMMETRIC NEW DIRECT SPARSE SOLVER RUNNING ON
 	1 HOST x 1 MPI RANK PER HOST x 6 THREADS PER RANK
        NUMBER OF EQUATIONS:  174160
        NUMBER OF RHS:        1
        NUMBER OF FLOPS:      2.375e+11
        SOLVER ELAPSED TIME:  5.8s

               CONVERGENCE CHECKS FOR EQUILIBRIUM ITERATION     1


 AVERAGE FORCE                       0.00       TIME AVG. FORCE       1.000E-02
 ALL FORCE     RESIDUALS ARE ZERO
 ALL DISP.    INCREMENTS ARE ZERO
 ALL CORRECTION TO DISP.    ARE ZERO
          THERE IS ZERO FORCE     EVERYWHERE

 AVERAGE HEAT FLUX                  3.272E-15   TIME AVG. HEAT FLUX   1.000E-02
 LARGEST RESIDUAL HEAT FLUX        -9.169E-18   AT NODE      43173   DOF 11
   INSTANCE: CHD2                                                                            
 LARGEST INCREMENT OF TEMP.         0.512       AT NODE      37147   DOF 11
   INSTANCE: CHD2                                                                            
 LARGEST CORRECTION TO TEMP.        -1.46       AT NODE      37532   DOF 11
   INSTANCE: CHD2                                                                            
          THERE IS ZERO HEAT FLUX EVERYWHERE
 

 ***WARNING: THERE IS ZERO HEAT FLUX EVERYWHERE IN THE MODEL BASED ON THE 
             DEFAULT CRITERION. PLEASE CHECK THE VALUE OF THE AVERAGE HEAT FLUX 
             DURING THE CURRENT ITERATION TO VERIFY THAT THE HEAT FLUX IS SMALL 
             ENOUGH TO BE TREATED AS ZERO. IF NOT, PLEASE USE THE SOLUTION 
             CONTROLS TO RESET THE CRITERION FOR ZERO HEAT FLUX.

 ITERATION SUMMARY FOR THE INCREMENT:   1 TOTAL ITERATIONS, OF WHICH
   0 ARE SEVERE DISCONTINUITY ITERATIONS AND  1 ARE EQUILIBRIUM ITERATIONS.

 TIME INCREMENT COMPLETED  1.440E+03,  FRACTION OF STEP COMPLETED  0.600    
 STEP TIME COMPLETED       4.320E+03,  TOTAL TIME COMPLETED        4.320E+03


  INCREMENT     4 STARTS. ATTEMPT NUMBER  1, TIME INCREMENT  1.440E+03
 
	UNSYMMETRIC NEW DIRECT SPARSE SOLVER RUNNING ON
 	1 HOST x 1 MPI RANK PER HOST x 6 THREADS PER RANK
        NUMBER OF EQUATIONS:  174160
        NUMBER OF RHS:        1
        NUMBER OF FLOPS:      2.375e+11
        SOLVER ELAPSED TIME:  5.7s

               CONVERGENCE CHECKS FOR EQUILIBRIUM ITERATION     1


 AVERAGE FORCE                       0.00       TIME AVG. FORCE       1.000E-02
 ALL FORCE     RESIDUALS ARE ZERO
 ALL DISP.    INCREMENTS ARE ZERO
 ALL CORRECTION TO DISP.    ARE ZERO
          THERE IS ZERO FORCE     EVERYWHERE

 AVERAGE HEAT FLUX                  7.465E-16   TIME AVG. HEAT FLUX   1.000E-02
 LARGEST RESIDUAL HEAT FLUX        -5.552E-19   AT NODE      43099   DOF 11
   INSTANCE: CHD2                                                                            
 LARGEST INCREMENT OF TEMP.         0.130       AT NODE      37147   DOF 11
   INSTANCE: CHD2                                                                            
 LARGEST CORRECTION TO TEMP.       -0.382       AT NODE      37147   DOF 11
   INSTANCE: CHD2                                                                            
          THERE IS ZERO HEAT FLUX EVERYWHERE
 

 ***WARNING: THERE IS ZERO HEAT FLUX EVERYWHERE IN THE MODEL BASED ON THE 
             DEFAULT CRITERION. PLEASE CHECK THE VALUE OF THE AVERAGE HEAT FLUX 
             DURING THE CURRENT ITERATION TO VERIFY THAT THE HEAT FLUX IS SMALL 
             ENOUGH TO BE TREATED AS ZERO. IF NOT, PLEASE USE THE SOLUTION 
             CONTROLS TO RESET THE CRITERION FOR ZERO HEAT FLUX.

 ITERATION SUMMARY FOR THE INCREMENT:   1 TOTAL ITERATIONS, OF WHICH
   0 ARE SEVERE DISCONTINUITY ITERATIONS AND  1 ARE EQUILIBRIUM ITERATIONS.

 TIME INCREMENT COMPLETED  1.440E+03,  FRACTION OF STEP COMPLETED  0.800    
 STEP TIME COMPLETED       5.760E+03,  TOTAL TIME COMPLETED        5.760E+03


  INCREMENT     5 STARTS. ATTEMPT NUMBER  1, TIME INCREMENT  1.440E+03
 
	UNSYMMETRIC NEW DIRECT SPARSE SOLVER RUNNING ON
 	1 HOST x 1 MPI RANK PER HOST x 6 THREADS PER RANK
        NUMBER OF EQUATIONS:  174160
        NUMBER OF RHS:        1
        NUMBER OF FLOPS:      2.375e+11
        SOLVER ELAPSED TIME:  6.0s

               CONVERGENCE CHECKS FOR EQUILIBRIUM ITERATION     1


 AVERAGE FORCE                       0.00       TIME AVG. FORCE       1.000E-02
 ALL FORCE     RESIDUALS ARE ZERO
 ALL DISP.    INCREMENTS ARE ZERO
 ALL CORRECTION TO DISP.    ARE ZERO
          THERE IS ZERO FORCE     EVERYWHERE

 AVERAGE HEAT FLUX                  1.717E-16   TIME AVG. HEAT FLUX   1.000E-02
 LARGEST RESIDUAL HEAT FLUX        -3.644E-20   AT NODE      42816   DOF 11
   INSTANCE: CHD2                                                                            
 LARGEST INCREMENT OF TEMP.         3.348E-02   AT NODE      39854   DOF 11
   INSTANCE: CHD2                                                                            
 LARGEST CORRECTION TO TEMP.       -9.695E-02   AT NODE      37147   DOF 11
   INSTANCE: CHD2                                                                            
          THERE IS ZERO HEAT FLUX EVERYWHERE
 

 ***WARNING: THERE IS ZERO HEAT FLUX EVERYWHERE IN THE MODEL BASED ON THE 
             DEFAULT CRITERION. PLEASE CHECK THE VALUE OF THE AVERAGE HEAT FLUX 
             DURING THE CURRENT ITERATION TO VERIFY THAT THE HEAT FLUX IS SMALL 
             ENOUGH TO BE TREATED AS ZERO. IF NOT, PLEASE USE THE SOLUTION 
             CONTROLS TO RESET THE CRITERION FOR ZERO HEAT FLUX.

 ITERATION SUMMARY FOR THE INCREMENT:   1 TOTAL ITERATIONS, OF WHICH
   0 ARE SEVERE DISCONTINUITY ITERATIONS AND  1 ARE EQUILIBRIUM ITERATIONS.

 TIME INCREMENT COMPLETED  1.440E+03,  FRACTION OF STEP COMPLETED   1.00    
 STEP TIME COMPLETED       7.200E+03,  TOTAL TIME COMPLETED        7.200E+03
1

   Abaqus 2023.HF4                                  Date 01-Nov-2024   Time 13:20:44
   For use by AALTO UNIVERSITY under license from Dassault Systemes or its subsidiary.

                                                                                 
                                                                                 
 STEP    2     INCREMENT     1     STEP TIME    0.00    


                        S T E P       2     C O U P L E D - T E M P E R A T U R E - D I S P L A C E M E N T   A N A L Y S I S


                                                                                          

     AUTOMATIC TIME CONTROL WITH -
          A SUGGESTED INITIAL TIME INCREMENT OF                 7.16    
          AND A TOTAL TIME PERIOD OF                            716.    
          THE MINIMUM TIME INCREMENT ALLOWED IS                1.000E-07
          THE MAXIMUM TIME INCREMENT ALLOWED IS                 7.16    

          CREEP AND SWELLING EFFECTS ARE OMITTED IN THIS STEP

     THE SIZE OF THE TIME INCREMENT IS CONTROLLED BY -
          THE TEMPERATURE CHANGE PER INCREMENT NOT EXCEEDING            10.0    
          THE RATE DEPENDENCY WILL BE CONSIDERED IN THIS STEP

          CREEP AND SWELLING EFFECTS WILL BE IGNORED.

 CONVERGENCE TOLERANCE PARAMETERS FOR FORCE    
     CRITERION FOR RESIDUAL FORCE     FOR A NONLINEAR PROBLEM          5.000E-03
     CRITERION FOR DISP.    CORRECTION IN A NONLINEAR PROBLEM          1.000E-02
     INIT. VALUE OF TIME AVG. FORCE     IS TIME AVG. FORCE     IN PREVIOUS STEP
     AVERAGE FORCE     IS TIME AVERAGE FORCE    
     ALTERNATE CRIT. FOR RESIDUAL FORCE     FOR A NONLINEAR PROBLEM    2.000E-02
     CRITERION FOR ZERO FORCE     RELATIVE TO TIME AVRG. FORCE         1.000E-05
     CRITERION FOR RESIDUAL FORCE     WHEN THERE IS ZERO FLUX          1.000E-05
     CRITERION FOR DISP.    CORRECTION WHEN THERE IS ZERO FLUX         1.000E-03
     CRITERION FOR RESIDUAL FORCE     FOR A LINEAR INCREMENT           1.000E-08
     FIELD CONVERSION RATIO                                             1.00    
     CRITERION FOR ZERO FORCE     REL. TO TIME AVRG. MAX. FORCE        1.000E-05
     CRITERION FOR ZERO DISP.    RELATIVE TO CHARACTERISTIC LENGTH     1.000E-08

 CONVERGENCE TOLERANCE PARAMETERS FOR HEAT FLUX
     CRITERION FOR RESIDUAL HEAT FLUX FOR A NONLINEAR PROBLEM          5.000E-03
     CRITERION FOR TEMP.    CORRECTION IN A NONLINEAR PROBLEM          1.000E-02
     INIT. VALUE OF TIME AVG. HEAT FLUX IS TIME AVG. HEAT FLUX IN PREVIOUS STEP
     AVERAGE HEAT FLUX IS TIME AVERAGE HEAT FLUX
     ALTERNATE CRIT. FOR RESIDUAL HEAT FLUX FOR A NONLINEAR PROBLEM    2.000E-02
     CRITERION FOR ZERO HEAT FLUX RELATIVE TO TIME AVRG. HEAT FLUX     1.000E-05
     CRITERION FOR RESIDUAL HEAT FLUX WHEN THERE IS ZERO FLUX          1.000E-05
     CRITERION FOR TEMP.    CORRECTION WHEN THERE IS ZERO FLUX         1.000E-03
     CRITERION FOR RESIDUAL HEAT FLUX FOR A LINEAR INCREMENT           1.000E-08
     FIELD CONVERSION RATIO                                             1.00    
     CRITERION FOR ZERO HEAT FLUX REL. TO TIME AVRG. MAX. HEAT FLUX    1.000E-05

     VOLUMETRIC STRAIN COMPATIBILITY TOLERANCE FOR HYBRID SOLIDS       1.000E-05
     AXIAL STRAIN COMPATIBILITY TOLERANCE FOR HYBRID BEAMS             1.000E-05
     TRANS. SHEAR STRAIN COMPATIBILITY TOLERANCE FOR HYBRID BEAMS      1.000E-05
     SOFT CONTACT CONSTRAINT COMPATIBILITY TOLERANCE FOR P>P0          5.000E-03
     SOFT CONTACT CONSTRAINT COMPATIBILITY TOLERANCE FOR P=0.0         0.100    
     CONTACT FORCE ERROR TOLERANCE FOR CONVERT SDI=YES                 1.00    
     DISPLACEMENT COMPATIBILITY TOLERANCE FOR DCOUP ELEMENTS           1.000E-05
     ROTATION COMPATIBILITY TOLERANCE FOR DCOUP ELEMENTS               1.000E-05

 EQUILIBRIUM WILL BE CHECKED FOR SEVERE DISCONTINUITY ITERATIONS

 TIME INCREMENTATION CONTROL PARAMETERS:
     FIRST EQUILIBRIUM ITERATION FOR CONSECUTIVE DIVERGENCE CHECK              4
     EQUILIBRIUM ITERATION AT WHICH LOG. CONVERGENCE RATE CHECK BEGINS         8
     EQUILIBRIUM ITERATION AFTER WHICH ALTERNATE RESIDUAL IS USED              9
     MAXIMUM EQUILIBRIUM ITERATIONS ALLOWED                                   16
     EQUILIBRIUM ITERATION COUNT FOR CUT-BACK IN NEXT INCREMENT               10
     MAXIMUM EQUILIB. ITERS IN TWO INCREMENTS FOR TIME INCREMENT INCREASE      4
     MAXIMUM ITERATIONS FOR SEVERE DISCONTINUITIES                            50
     MAXIMUM ATTEMPTS ALLOWED IN AN INCREMENT                                  5
     MAXIMUM DISCON. ITERS IN TWO INCREMENTS FOR TIME INCREMENT INCREASE      50
     MAXIMUM CONTACT AUGMENTATIONS FOR *SURFACE BEHAVIOR,AUGMENTED LAGRANGE   50
     CONSECUTIVE INCS MEETING TIME INTEG. TOL. FOR TIME INC. INCREASE          3
     CUT-BACK FACTOR AFTER DIVERGENCE                                 0.2500    
     CUT-BACK FACTOR FOR TOO SLOW CONVERGENCE                         0.5000    
     CUT-BACK FACTOR AFTER TOO MANY EQUILIBRIUM ITERATIONS            0.7500    
     CUT-BACK FACTOR AFTER TOO MANY SEVERE DISCONTINUITY ITERATIONS   0.2500    
     CUT-BACK FACTOR AFTER PROBLEMS IN ELEMENT ASSEMBLY               0.2500    
     INCREASE FACTOR AFTER TWO INCREMENTS THAT CONVERGE QUICKLY        1.500    
     MAX. TIME INCREMENT INCREASE FACTOR ALLOWED                       1.500    
     MAX. TIME INCREMENT INCREASE FACTOR ALLOWED (DYNAMICS)            1.250    
     MAX. TIME INCREMENT INCREASE FACTOR ALLOWED (DIFFUSION)           2.000    
     MINIMUM TIME INCREMENT RATIO FOR EXTRAPOLATION TO OCCUR          0.1000    
     CUT-BACK FACTOR WHEN TIME INTEGRATION ACCURACY TOL. EXCEEDED     0.8500    
     MAX. RATIO OF TIME INTEG. MEASURE TO TOL. FOR TIME INC. INCREASE 0.7500    
     INCREASE FACTOR FOR TIME INCREMENT WHEN POSSIBLE                 0.8000    
     MIN. TIME INC. INCREASE FACTOR IN LINEAR TRANSIENT PROBLEMS      0.9500    
     MAX. RATIO OF TIME INCREMENT TO STABILITY LIMIT                   1.000    
     FRACTION OF STABILITY LIMIT FOR NEW TIME INCREMENT               0.9500    
     TIME INCREMENT INCREASE FACTOR BEFORE A TIME POINT                1.000    
     GLOBAL STABILIZATION CONTROL IS NOT USED

          PRINT OF INCREMENT NUMBER, TIME, ETC., EVERY    1  INCREMENTS

     THE MAXIMUM NUMBER OF INCREMENTS IN THIS STEP IS                 1000000

          LARGE DISPLACEMENT THEORY WILL BE USED

          UNSYMMETRIC MATRIX STORAGE AND SOLUTION WILL BE USED

     LINEAR EXTRAPOLATION WILL BE USED

     CHARACTERISTIC ELEMENT LENGTH     1.962E-04

     DETAILS REGARDING ACTUAL SOLUTION WAVEFRONT REQUESTED

     DETAILED OUTPUT OF DIAGNOSTICS TO DATABASE REQUESTED

     PRINT OF INCREMENT NUMBER, TIME, ETC., TO THE MESSAGE FILE EVERY     1  INCREMENTS

     ELEMENT OPERATIONS WILL BE CARRIED OUT IN PARALLEL USING   6 THREADS ON 1 DOMAIN

     COLLECTING STEP CONSTRAINT INFORMATION FOR OVERCONSTRAINT CHECKS


  INCREMENT     1 STARTS. ATTEMPT NUMBER  1, TIME INCREMENT   7.16    
 
     INITIAL ELEMENT LOAD BALANCE
            DOMAIN    1     THREAD    NUMBER OF ELEMENTS
                              1            5760
                              2            5792
                              3            5712
                              4            5936
                              5            5728
                              6            5966
 
	UNSYMMETRIC NEW DIRECT SPARSE SOLVER RUNNING ON
 	1 HOST x 1 MPI RANK PER HOST x 6 THREADS PER RANK
        NUMBER OF EQUATIONS:  174160
        NUMBER OF RHS:        1
        NUMBER OF FLOPS:      2.375e+11
        SOLVER ELAPSED TIME:  1.4s

 ***WARNING: SOLVER PROBLEM.  ZERO PIVOT WHEN PROCESSING NODE 4775 INSTANCE 
             CHD2 D.O.F. 11
  Typically a zero pivot is associated with an overconstraint in the model. 
 However, Abaqus was not able to identify any chains of constraints that might 
 lead to an overconstraint at this node. This suggests that the model might be 
 in fact insufficiently constrained in this particular degree of freedom. 
 Please check the constraints used in this model. 


 ***WARNING: SOLVER PROBLEM.  ZERO PIVOT WHEN PROCESSING NODE 4774 INSTANCE 
             CHD2 D.O.F. 11
  Typically a zero pivot is associated with an overconstraint in the model. 
 However, Abaqus was not able to identify any chains of constraints that might 
 lead to an overconstraint at this node. This suggests that the model might be 
 in fact insufficiently constrained in this particular degree of freedom. 
 Please check the constraints used in this model. 


 ***WARNING: SOLVER PROBLEM.  ZERO PIVOT WHEN PROCESSING NODE 10653 INSTANCE 
             CHD2 D.O.F. 11
  Typically a zero pivot is associated with an overconstraint in the model. 
 However, Abaqus was not able to identify any chains of constraints that might 
 lead to an overconstraint at this node. This suggests that the model might be 
 in fact insufficiently constrained in this particular degree of freedom. 
 Please check the constraints used in this model. 


 ***WARNING: SOLVER PROBLEM.  ZERO PIVOT WHEN PROCESSING NODE 30300 INSTANCE 
             CHD2 D.O.F. 11
  Typically a zero pivot is associated with an overconstraint in the model. 
 However, Abaqus was not able to identify any chains of constraints that might 
 lead to an overconstraint at this node. This suggests that the model might be 
 in fact insufficiently constrained in this particular degree of freedom. 
 Please check the constraints used in this model. 


 ***WARNING: SOLVER PROBLEM.  ZERO PIVOT WHEN PROCESSING NODE 9081 INSTANCE 
             CHD2 D.O.F. 11
  Typically a zero pivot is associated with an overconstraint in the model. 
 However, Abaqus was not able to identify any chains of constraints that might 
 lead to an overconstraint at this node. This suggests that the model might be 
 in fact insufficiently constrained in this particular degree of freedom. 
 Please check the constraints used in this model. 


 ***WARNING: SOLVER PROBLEM.  ZERO PIVOT WHEN PROCESSING NODE 4777 INSTANCE 
             CHD2 D.O.F. 11
  Typically a zero pivot is associated with an overconstraint in the model. 
 However, Abaqus was not able to identify any chains of constraints that might 
 lead to an overconstraint at this node. This suggests that the model might be 
 in fact insufficiently constrained in this particular degree of freedom. 
 Please check the constraints used in this model. 


 ***WARNING: SOLVER PROBLEM.  ZERO PIVOT WHEN PROCESSING NODE 3205 INSTANCE 
             CHD2 D.O.F. 11
  Typically a zero pivot is associated with an overconstraint in the model. 
 However, Abaqus was not able to identify any chains of constraints that might 
 lead to an overconstraint at this node. This suggests that the model might be 
 in fact insufficiently constrained in this particular degree of freedom. 
 Please check the constraints used in this model. 


 ***WARNING: SOLVER PROBLEM.  ZERO PIVOT WHEN PROCESSING NODE 24968 INSTANCE 
             CHD2 D.O.F. 11
  Typically a zero pivot is associated with an overconstraint in the model. 
 However, Abaqus was not able to identify any chains of constraints that might 
 lead to an overconstraint at this node. This suggests that the model might be 
 in fact insufficiently constrained in this particular degree of freedom. 
 Please check the constraints used in this model. 


 ***WARNING: SOLVER PROBLEM.  ZERO PIVOT WHEN PROCESSING NODE 27634 INSTANCE 
             CHD2 D.O.F. 11
  Typically a zero pivot is associated with an overconstraint in the model. 
 However, Abaqus was not able to identify any chains of constraints that might 
 lead to an overconstraint at this node. This suggests that the model might be 
 in fact insufficiently constrained in this particular degree of freedom. 
 Please check the constraints used in this model. 


 ***WARNING: SOLVER PROBLEM.  ZERO PIVOT WHEN PROCESSING NODE 6143 INSTANCE 
             CHD2 D.O.F. 11
  Typically a zero pivot is associated with an overconstraint in the model. 
 However, Abaqus was not able to identify any chains of constraints that might 
 lead to an overconstraint at this node. This suggests that the model might be 
 in fact insufficiently constrained in this particular degree of freedom. 
 Please check the constraints used in this model. 


 ***WARNING: SOLVER PROBLEM.  ZERO PIVOT WHEN PROCESSING NODE 7715 INSTANCE 
             CHD2 D.O.F. 11
  Typically a zero pivot is associated with an overconstraint in the model. 
 However, Abaqus was not able to identify any chains of constraints that might 
 lead to an overconstraint at this node. This suggests that the model might be 
 in fact insufficiently constrained in this particular degree of freedom. 
 Please check the constraints used in this model. 


 ***WARNING: SOLVER PROBLEM.  ZERO PIVOT WHEN PROCESSING NODE 27640 INSTANCE 
             CHD2 D.O.F. 11
  Typically a zero pivot is associated with an overconstraint in the model. 
 However, Abaqus was not able to identify any chains of constraints that might 
 lead to an overconstraint at this node. This suggests that the model might be 
 in fact insufficiently constrained in this particular degree of freedom. 
 Please check the constraints used in this model. 


 ***WARNING: SOLVER PROBLEM.  ZERO PIVOT WHEN PROCESSING NODE 30306 INSTANCE 
             CHD2 D.O.F. 11
  Typically a zero pivot is associated with an overconstraint in the model. 
 However, Abaqus was not able to identify any chains of constraints that might 
 lead to an overconstraint at this node. This suggests that the model might be 
 in fact insufficiently constrained in this particular degree of freedom. 
 Please check the constraints used in this model. 


 ***WARNING: SOLVER PROBLEM.  ZERO PIVOT WHEN PROCESSING NODE 4776 INSTANCE 
             CHD2 D.O.F. 11
  Typically a zero pivot is associated with an overconstraint in the model. 
 However, Abaqus was not able to identify any chains of constraints that might 
 lead to an overconstraint at this node. This suggests that the model might be 
 in fact insufficiently constrained in this particular degree of freedom. 
 Please check the constraints used in this model. 


 ***WARNING: SOLVER PROBLEM.  ZERO PIVOT WHEN PROCESSING NODE 3204 INSTANCE 
             CHD2 D.O.F. 11
  Typically a zero pivot is associated with an overconstraint in the model. 
 However, Abaqus was not able to identify any chains of constraints that might 
 lead to an overconstraint at this node. This suggests that the model might be 
 in fact insufficiently constrained in this particular degree of freedom. 
 Please check the constraints used in this model. 


 ***WARNING: SOLVER PROBLEM.  ZERO PIVOT WHEN PROCESSING NODE 24974 INSTANCE 
             CHD2 D.O.F. 11
  Typically a zero pivot is associated with an overconstraint in the model. 
 However, Abaqus was not able to identify any chains of constraints that might 
 lead to an overconstraint at this node. This suggests that the model might be 
 in fact insufficiently constrained in this particular degree of freedom. 
 Please check the constraints used in this model. 


 ***WARNING: SOLVER PROBLEM.  ZERO PIVOT WHEN PROCESSING NODE 30318 INSTANCE 
             CHD2 D.O.F. 11
  Typically a zero pivot is associated with an overconstraint in the model. 
 However, Abaqus was not able to identify any chains of constraints that might 
 lead to an overconstraint at this node. This suggests that the model might be 
 in fact insufficiently constrained in this particular degree of freedom. 
 Please check the constraints used in this model. 


 ***WARNING: SOLVER PROBLEM.  ZERO PIVOT WHEN PROCESSING NODE 27652 INSTANCE 
             CHD2 D.O.F. 11
  Typically a zero pivot is associated with an overconstraint in the model. 
 However, Abaqus was not able to identify any chains of constraints that might 
 lead to an overconstraint at this node. This suggests that the model might be 
 in fact insufficiently constrained in this particular degree of freedom. 
 Please check the constraints used in this model. 


 ***WARNING: SOLVER PROBLEM.  ZERO PIVOT WHEN PROCESSING NODE 30312 INSTANCE 
             CHD2 D.O.F. 11
  Typically a zero pivot is associated with an overconstraint in the model. 
 However, Abaqus was not able to identify any chains of constraints that might 
 lead to an overconstraint at this node. This suggests that the model might be 
 in fact insufficiently constrained in this particular degree of freedom. 
 Please check the constraints used in this model. 


 ***WARNING: SOLVER PROBLEM.  ZERO PIVOT WHEN PROCESSING NODE 3202 INSTANCE 
             CHD2 D.O.F. 11
  Typically a zero pivot is associated with an overconstraint in the model. 
 However, Abaqus was not able to identify any chains of constraints that might 
 lead to an overconstraint at this node. This suggests that the model might be 
 in fact insufficiently constrained in this particular degree of freedom. 
 Please check the constraints used in this model. 


 ***WARNING: SOLVER PROBLEM.  ZERO PIVOT WHEN PROCESSING NODE 3203 INSTANCE 
             CHD2 D.O.F. 11
  Typically a zero pivot is associated with an overconstraint in the model. 
 However, Abaqus was not able to identify any chains of constraints that might 
 lead to an overconstraint at this node. This suggests that the model might be 
 in fact insufficiently constrained in this particular degree of freedom. 
 Please check the constraints used in this model. 


 ***WARNING: SOLVER PROBLEM.  ZERO PIVOT WHEN PROCESSING NODE 24980 INSTANCE 
             CHD2 D.O.F. 11
  Typically a zero pivot is associated with an overconstraint in the model. 
 However, Abaqus was not able to identify any chains of constraints that might 
 lead to an overconstraint at this node. This suggests that the model might be 
 in fact insufficiently constrained in this particular degree of freedom. 
 Please check the constraints used in this model. 


 ***WARNING: SOLVER PROBLEM.  ZERO PIVOT WHEN PROCESSING NODE 24986 INSTANCE 
             CHD2 D.O.F. 11
  Typically a zero pivot is associated with an overconstraint in the model. 
 However, Abaqus was not able to identify any chains of constraints that might 
 lead to an overconstraint at this node. This suggests that the model might be 
 in fact insufficiently constrained in this particular degree of freedom. 
 Please check the constraints used in this model. 


 ***WARNING: SOLVER PROBLEM.  ZERO PIVOT WHEN PROCESSING NODE 27646 INSTANCE 
             CHD2 D.O.F. 11
  Typically a zero pivot is associated with an overconstraint in the model. 
 However, Abaqus was not able to identify any chains of constraints that might 
 lead to an overconstraint at this node. This suggests that the model might be 
 in fact insufficiently constrained in this particular degree of freedom. 
 Please check the constraints used in this model. 


 ***WARNING: SOLVER PROBLEM.  ZERO PIVOT WHEN PROCESSING NODE 10648 INSTANCE 
             CHD2 D.O.F. 11
  Typically a zero pivot is associated with an overconstraint in the model. 
 However, Abaqus was not able to identify any chains of constraints that might 
 lead to an overconstraint at this node. This suggests that the model might be 
 in fact insufficiently constrained in this particular degree of freedom. 
 Please check the constraints used in this model. 


 ***WARNING: SOLVER PROBLEM.  ZERO PIVOT WHEN PROCESSING NODE 7710 INSTANCE 
             CHD2 D.O.F. 11
  Typically a zero pivot is associated with an overconstraint in the model. 
 However, Abaqus was not able to identify any chains of constraints that might 
 lead to an overconstraint at this node. This suggests that the model might be 
 in fact insufficiently constrained in this particular degree of freedom. 
 Please check the constraints used in this model. 


 ***WARNING: SOLVER PROBLEM.  ZERO PIVOT WHEN PROCESSING NODE 30330 INSTANCE 
             CHD2 D.O.F. 11
  Typically a zero pivot is associated with an overconstraint in the model. 
 However, Abaqus was not able to identify any chains of constraints that might 
 lead to an overconstraint at this node. This suggests that the model might be 
 in fact insufficiently constrained in this particular degree of freedom. 
 Please check the constraints used in this model. 


 ***WARNING: SOLVER PROBLEM.  ZERO PIVOT WHEN PROCESSING NODE 27664 INSTANCE 
             CHD2 D.O.F. 11
  Typically a zero pivot is associated with an overconstraint in the model. 
 However, Abaqus was not able to identify any chains of constraints that might 
 lead to an overconstraint at this node. This suggests that the model might be 
 in fact insufficiently constrained in this particular degree of freedom. 
 Please check the constraints used in this model. 


 ***WARNING: SOLVER PROBLEM.  ZERO PIVOT WHEN PROCESSING NODE 9076 INSTANCE 
             CHD2 D.O.F. 11
  Typically a zero pivot is associated with an overconstraint in the model. 
 However, Abaqus was not able to identify any chains of constraints that might 
 lead to an overconstraint at this node. This suggests that the model might be 
 in fact insufficiently constrained in this particular degree of freedom. 
 Please check the constraints used in this model. 


 ***WARNING: SOLVER PROBLEM.  ZERO PIVOT WHEN PROCESSING NODE 6138 INSTANCE 
             CHD2 D.O.F. 11
  Typically a zero pivot is associated with an overconstraint in the model. 
 However, Abaqus was not able to identify any chains of constraints that might 
 lead to an overconstraint at this node. This suggests that the model might be 
 in fact insufficiently constrained in this particular degree of freedom. 
 Please check the constraints used in this model. 


 ***WARNING: SOLVER PROBLEM.  ZERO PIVOT WHEN PROCESSING NODE 16524 INSTANCE 
             CHD2 D.O.F. 11
  Typically a zero pivot is associated with an overconstraint in the model. 
 However, Abaqus was not able to identify any chains of constraints that might 
 lead to an overconstraint at this node. This suggests that the model might be 
 in fact insufficiently constrained in this particular degree of freedom. 
 Please check the constraints used in this model. 


 ***WARNING: SOLVER PROBLEM.  ZERO PIVOT WHEN PROCESSING NODE 20820 INSTANCE 
             CHD2 D.O.F. 11
  Typically a zero pivot is associated with an overconstraint in the model. 
 However, Abaqus was not able to identify any chains of constraints that might 
 lead to an overconstraint at this node. This suggests that the model might be 
 in fact insufficiently constrained in this particular degree of freedom. 
 Please check the constraints used in this model. 


 ***WARNING: SOLVER PROBLEM.  ZERO PIVOT WHEN PROCESSING NODE 14952 INSTANCE 
             CHD2 D.O.F. 11
  Typically a zero pivot is associated with an overconstraint in the model. 
 However, Abaqus was not able to identify any chains of constraints that might 
 lead to an overconstraint at this node. This suggests that the model might be 
 in fact insufficiently constrained in this particular degree of freedom. 
 Please check the constraints used in this model. 


 ***WARNING: SOLVER PROBLEM.  ZERO PIVOT WHEN PROCESSING NODE 16525 INSTANCE 
             CHD2 D.O.F. 11
  Typically a zero pivot is associated with an overconstraint in the model. 
 However, Abaqus was not able to identify any chains of constraints that might 
 lead to an overconstraint at this node. This suggests that the model might be 
 in fact insufficiently constrained in this particular degree of freedom. 
 Please check the constraints used in this model. 


 ***WARNING: SOLVER PROBLEM.  ZERO PIVOT WHEN PROCESSING NODE 20808 INSTANCE 
             CHD2 D.O.F. 11
  Typically a zero pivot is associated with an overconstraint in the model. 
 However, Abaqus was not able to identify any chains of constraints that might 
 lead to an overconstraint at this node. This suggests that the model might be 
 in fact insufficiently constrained in this particular degree of freedom. 
 Please check the constraints used in this model. 


 ***WARNING: SOLVER PROBLEM.  ZERO PIVOT WHEN PROCESSING NODE 20814 INSTANCE 
             CHD2 D.O.F. 11
  Typically a zero pivot is associated with an overconstraint in the model. 
 However, Abaqus was not able to identify any chains of constraints that might 
 lead to an overconstraint at this node. This suggests that the model might be 
 in fact insufficiently constrained in this particular degree of freedom. 
 Please check the constraints used in this model. 


 ***WARNING: SOLVER PROBLEM.  ZERO PIVOT WHEN PROCESSING NODE 14953 INSTANCE 
             CHD2 D.O.F. 11
  Typically a zero pivot is associated with an overconstraint in the model. 
 However, Abaqus was not able to identify any chains of constraints that might 
 lead to an overconstraint at this node. This suggests that the model might be 
 in fact insufficiently constrained in this particular degree of freedom. 
 Please check the constraints used in this model. 


 ***WARNING: SOLVER PROBLEM.  ZERO PIVOT WHEN PROCESSING NODE 16529 INSTANCE 
             CHD2 D.O.F. 11
  Typically a zero pivot is associated with an overconstraint in the model. 
 However, Abaqus was not able to identify any chains of constraints that might 
 lead to an overconstraint at this node. This suggests that the model might be 
 in fact insufficiently constrained in this particular degree of freedom. 
 Please check the constraints used in this model. 


 ***WARNING: SOLVER PROBLEM.  ZERO PIVOT WHEN PROCESSING NODE 20790 INSTANCE 
             CHD2 D.O.F. 11
  Typically a zero pivot is associated with an overconstraint in the model. 
 However, Abaqus was not able to identify any chains of constraints that might 
 lead to an overconstraint at this node. This suggests that the model might be 
 in fact insufficiently constrained in this particular degree of freedom. 
 Please check the constraints used in this model. 


 ***WARNING: SOLVER PROBLEM.  ZERO PIVOT WHEN PROCESSING NODE 14957 INSTANCE 
             CHD2 D.O.F. 11
  Typically a zero pivot is associated with an overconstraint in the model. 
 However, Abaqus was not able to identify any chains of constraints that might 
 lead to an overconstraint at this node. This suggests that the model might be 
 in fact insufficiently constrained in this particular degree of freedom. 
 Please check the constraints used in this model. 


 ***WARNING: SOLVER PROBLEM.  ZERO PIVOT WHEN PROCESSING NODE 20796 INSTANCE 
             CHD2 D.O.F. 11
  Typically a zero pivot is associated with an overconstraint in the model. 
 However, Abaqus was not able to identify any chains of constraints that might 
 lead to an overconstraint at this node. This suggests that the model might be 
 in fact insufficiently constrained in this particular degree of freedom. 
 Please check the constraints used in this model. 


 ***WARNING: SOLVER PROBLEM.  ZERO PIVOT WHEN PROCESSING NODE 16527 INSTANCE 
             CHD2 D.O.F. 11
  Typically a zero pivot is associated with an overconstraint in the model. 
 However, Abaqus was not able to identify any chains of constraints that might 
 lead to an overconstraint at this node. This suggests that the model might be 
 in fact insufficiently constrained in this particular degree of freedom. 
 Please check the constraints used in this model. 


 ***WARNING: SOLVER PROBLEM.  ZERO PIVOT WHEN PROCESSING NODE 16528 INSTANCE 
             CHD2 D.O.F. 11
  Typically a zero pivot is associated with an overconstraint in the model. 
 However, Abaqus was not able to identify any chains of constraints that might 
 lead to an overconstraint at this node. This suggests that the model might be 
 in fact insufficiently constrained in this particular degree of freedom. 
 Please check the constraints used in this model. 


 ***WARNING: SOLVER PROBLEM.  ZERO PIVOT WHEN PROCESSING NODE 14956 INSTANCE 
             CHD2 D.O.F. 11
  Typically a zero pivot is associated with an overconstraint in the model. 
 However, Abaqus was not able to identify any chains of constraints that might 
 lead to an overconstraint at this node. This suggests that the model might be 
 in fact insufficiently constrained in this particular degree of freedom. 
 Please check the constraints used in this model. 


 ***WARNING: SOLVER PROBLEM.  ZERO PIVOT WHEN PROCESSING NODE 20802 INSTANCE 
             CHD2 D.O.F. 11
  Typically a zero pivot is associated with an overconstraint in the model. 
 However, Abaqus was not able to identify any chains of constraints that might 
 lead to an overconstraint at this node. This suggests that the model might be 
 in fact insufficiently constrained in this particular degree of freedom. 
 Please check the constraints used in this model. 


 ***WARNING: SOLVER PROBLEM.  ZERO PIVOT WHEN PROCESSING NODE 14954 INSTANCE 
             CHD2 D.O.F. 11
  Typically a zero pivot is associated with an overconstraint in the model. 
 However, Abaqus was not able to identify any chains of constraints that might 
 lead to an overconstraint at this node. This suggests that the model might be 
 in fact insufficiently constrained in this particular degree of freedom. 
 Please check the constraints used in this model. 


 ***WARNING: SOLVER PROBLEM.  ZERO PIVOT WHEN PROCESSING NODE 14955 INSTANCE 
             CHD2 D.O.F. 11
  Typically a zero pivot is associated with an overconstraint in the model. 
 However, Abaqus was not able to identify any chains of constraints that might 
 lead to an overconstraint at this node. This suggests that the model might be 
 in fact insufficiently constrained in this particular degree of freedom. 
 Please check the constraints used in this model. 


 ***WARNING: SOLVER PROBLEM.  ZERO PIVOT WHEN PROCESSING NODE 16526 INSTANCE 
             CHD2 D.O.F. 11
  Typically a zero pivot is associated with an overconstraint in the model. 
 However, Abaqus was not able to identify any chains of constraints that might 
 lead to an overconstraint at this node. This suggests that the model might be 
 in fact insufficiently constrained in this particular degree of freedom. 
 Please check the constraints used in this model. 


 ***WARNING: SOLVER PROBLEM.  ZERO PIVOT WHEN PROCESSING NODE 32996 INSTANCE 
             CHD2 D.O.F. 11
  Typically a zero pivot is associated with an overconstraint in the model. 
 However, Abaqus was not able to identify any chains of constraints that might 
 lead to an overconstraint at this node. This suggests that the model might be 
 in fact insufficiently constrained in this particular degree of freedom. 
 Please check the constraints used in this model. 


 ***WARNING: Solver problem. Zero pivot when processing D.O.F. 11 of 49 nodes. 
             The nodes have been identified in node set 
             WarnNodeSolvProbZeroPiv_11_2_1_1_1.

               CONVERGENCE CHECKS FOR EQUILIBRIUM ITERATION     1


 AVERAGE FORCE                      7.153E-02   TIME AVG. FORCE       7.153E-02
 LARGEST SCALED RESIDUAL FORCE      1.897E-03   AT NODE      42998   DOF  3
   INSTANCE: CHD2                                                                            
  CORRESPONDING RESIDUAL FORCE      1.897E-03
 LARGEST INCREMENT OF DISP.         1.791E-05   AT NODE      42473   DOF  2
   INSTANCE: CHD2                                                                            
 LARGEST CORRECTION TO DISP.        1.791E-05   AT NODE      42473   DOF  2
   INSTANCE: CHD2                                                                            
          FORCE     EQUILIBRIUM NOT ACHIEVED WITHIN TOLERANCE.

 AVERAGE HEAT FLUX                  1.689E-16   TIME AVG. HEAT FLUX   1.000E-02
 LARGEST RESIDUAL HEAT FLUX         1.383E-18   AT NODE      43102   DOF 11
   INSTANCE: CHD2                                                                            
 LARGEST INCREMENT OF TEMP.         1.642E-04   AT NODE      39854   DOF 11
   INSTANCE: CHD2                                                                            
 LARGEST CORRECTION TO TEMP.        1.642E-04   AT NODE      39854   DOF 11
   INSTANCE: CHD2                                                                            
          THERE IS ZERO HEAT FLUX EVERYWHERE
 

 ***WARNING: THERE IS ZERO HEAT FLUX EVERYWHERE IN THE MODEL BASED ON THE 
             DEFAULT CRITERION. PLEASE CHECK THE VALUE OF THE AVERAGE HEAT FLUX 
             DURING THE CURRENT ITERATION TO VERIFY THAT THE HEAT FLUX IS SMALL 
             ENOUGH TO BE TREATED AS ZERO. IF NOT, PLEASE USE THE SOLUTION 
             CONTROLS TO RESET THE CRITERION FOR ZERO HEAT FLUX.
 
	UNSYMMETRIC NEW DIRECT SPARSE SOLVER RUNNING ON
 	1 HOST x 1 MPI RANK PER HOST x 6 THREADS PER RANK
        NUMBER OF EQUATIONS:  174160
        NUMBER OF RHS:        1
        NUMBER OF FLOPS:      2.375e+11
        SOLVER ELAPSED TIME:  1.4s

               CONVERGENCE CHECKS FOR EQUILIBRIUM ITERATION     2


 AVERAGE FORCE                      7.153E-02   TIME AVG. FORCE       7.153E-02
 LARGEST SCALED RESIDUAL FORCE     -2.863E-08   AT NODE      42074   DOF  2
   INSTANCE: CHD2                                                                            
  CORRESPONDING RESIDUAL FORCE     -2.863E-08
 LARGEST INCREMENT OF DISP.         1.791E-05   AT NODE      42473   DOF  2
   INSTANCE: CHD2                                                                            
 LARGEST CORRECTION TO DISP.        9.898E-11   AT NODE      42139   DOF  2
   INSTANCE: CHD2                                                                            
          THE FORCE     EQUILIBRIUM EQUATIONS HAVE CONVERGED

 AVERAGE HEAT FLUX                  1.689E-16   TIME AVG. HEAT FLUX   1.000E-02
 LARGEST RESIDUAL HEAT FLUX        -5.835E-23   AT NODE      42811   DOF 11
   INSTANCE: CHD2                                                                            
 LARGEST INCREMENT OF TEMP.         1.642E-04   AT NODE      39854   DOF 11
   INSTANCE: CHD2                                                                            
 LARGEST CORRECTION TO TEMP.        1.540E-08   AT NODE      37360   DOF 11
   INSTANCE: CHD2                                                                            
          THERE IS ZERO HEAT FLUX EVERYWHERE
 

 ***WARNING: THERE IS ZERO HEAT FLUX EVERYWHERE IN THE MODEL BASED ON THE 
             DEFAULT CRITERION. PLEASE CHECK THE VALUE OF THE AVERAGE HEAT FLUX 
             DURING THE CURRENT ITERATION TO VERIFY THAT THE HEAT FLUX IS SMALL 
             ENOUGH TO BE TREATED AS ZERO. IF NOT, PLEASE USE THE SOLUTION 
             CONTROLS TO RESET THE CRITERION FOR ZERO HEAT FLUX.

 MAXIMUM NON-PRESCRIBED INCREMENT IN TEMPERATURE IS   1.642E-04

 ITERATION SUMMARY FOR THE INCREMENT:   2 TOTAL ITERATIONS, OF WHICH
   0 ARE SEVERE DISCONTINUITY ITERATIONS AND  2 ARE EQUILIBRIUM ITERATIONS.

 TIME INCREMENT COMPLETED   7.16    ,  FRACTION OF STEP COMPLETED  1.000E-02
 STEP TIME COMPLETED        7.16    ,  TOTAL TIME COMPLETED        7.207E+03


  INCREMENT     2 STARTS. ATTEMPT NUMBER  1, TIME INCREMENT   7.16    
 
	UNSYMMETRIC NEW DIRECT SPARSE SOLVER RUNNING ON
 	1 HOST x 1 MPI RANK PER HOST x 6 THREADS PER RANK
        NUMBER OF EQUATIONS:  174160
        NUMBER OF RHS:        1
        NUMBER OF FLOPS:      2.375e+11
        SOLVER ELAPSED TIME:  1.5s

               CONVERGENCE CHECKS FOR EQUILIBRIUM ITERATION     1


 AVERAGE FORCE                      0.181       TIME AVG. FORCE       0.126    
 LARGEST SCALED RESIDUAL FORCE     -6.538E-08   AT NODE      42106   DOF  2
   INSTANCE: CHD2                                                                            
  CORRESPONDING RESIDUAL FORCE     -6.538E-08
 LARGEST INCREMENT OF DISP.         1.791E-05   AT NODE      42473   DOF  2
   INSTANCE: CHD2                                                                            
 LARGEST CORRECTION TO DISP.        1.883E-10   AT NODE      42139   DOF  2
   INSTANCE: CHD2                                                                            
          THE FORCE     EQUILIBRIUM EQUATIONS HAVE CONVERGED

 AVERAGE HEAT FLUX                  1.711E-16   TIME AVG. HEAT FLUX   1.000E-02
 LARGEST RESIDUAL HEAT FLUX        -1.138E-22   AT NODE      42734   DOF 11
   INSTANCE: CHD2                                                                            
 LARGEST INCREMENT OF TEMP.        -1.555E-03   AT NODE      19989   DOF 11
   INSTANCE: CHD2                                                                            
 LARGEST CORRECTION TO TEMP.       -1.565E-03   AT NODE      19989   DOF 11
   INSTANCE: CHD2                                                                            
          THERE IS ZERO HEAT FLUX EVERYWHERE
 

 ***WARNING: THERE IS ZERO HEAT FLUX EVERYWHERE IN THE MODEL BASED ON THE 
             DEFAULT CRITERION. PLEASE CHECK THE VALUE OF THE AVERAGE HEAT FLUX 
             DURING THE CURRENT ITERATION TO VERIFY THAT THE HEAT FLUX IS SMALL 
             ENOUGH TO BE TREATED AS ZERO. IF NOT, PLEASE USE THE SOLUTION 
             CONTROLS TO RESET THE CRITERION FOR ZERO HEAT FLUX.

 MAXIMUM NON-PRESCRIBED INCREMENT IN TEMPERATURE IS  -1.555E-03

 ITERATION SUMMARY FOR THE INCREMENT:   1 TOTAL ITERATIONS, OF WHICH
   0 ARE SEVERE DISCONTINUITY ITERATIONS AND  1 ARE EQUILIBRIUM ITERATIONS.

 TIME INCREMENT COMPLETED   7.16    ,  FRACTION OF STEP COMPLETED  2.000E-02
 STEP TIME COMPLETED        14.3    ,  TOTAL TIME COMPLETED        7.214E+03


  INCREMENT     3 STARTS. ATTEMPT NUMBER  1, TIME INCREMENT   7.16    
 
	UNSYMMETRIC NEW DIRECT SPARSE SOLVER RUNNING ON
 	1 HOST x 1 MPI RANK PER HOST x 6 THREADS PER RANK
        NUMBER OF EQUATIONS:  174160
        NUMBER OF RHS:        1
        NUMBER OF FLOPS:      2.375e+11
        SOLVER ELAPSED TIME:  1.5s

               CONVERGENCE CHECKS FOR EQUILIBRIUM ITERATION     1


 AVERAGE FORCE                      0.271       TIME AVG. FORCE       0.174    
 LARGEST SCALED RESIDUAL FORCE     -1.162E-07   AT NODE      42106   DOF  2
   INSTANCE: CHD2                                                                            
  CORRESPONDING RESIDUAL FORCE     -1.162E-07
 LARGEST INCREMENT OF DISP.         1.791E-05   AT NODE      42473   DOF  2
   INSTANCE: CHD2                                                                            
 LARGEST CORRECTION TO DISP.        1.883E-10   AT NODE      42139   DOF  2
   INSTANCE: CHD2                                                                            
          THE FORCE     EQUILIBRIUM EQUATIONS HAVE CONVERGED

 AVERAGE HEAT FLUX                  1.747E-16   TIME AVG. HEAT FLUX   1.000E-02
 LARGEST RESIDUAL HEAT FLUX        -1.128E-22   AT NODE      42811   DOF 11
   INSTANCE: CHD2                                                                            
 LARGEST INCREMENT OF TEMP.        -2.575E-03   AT NODE      19989   DOF 11
   INSTANCE: CHD2                                                                            
 LARGEST CORRECTION TO TEMP.       -1.047E-03   AT NODE      14714   DOF 11
   INSTANCE: CHD2                                                                            
          THERE IS ZERO HEAT FLUX EVERYWHERE
 

 ***WARNING: THERE IS ZERO HEAT FLUX EVERYWHERE IN THE MODEL BASED ON THE 
             DEFAULT CRITERION. PLEASE CHECK THE VALUE OF THE AVERAGE HEAT FLUX 
             DURING THE CURRENT ITERATION TO VERIFY THAT THE HEAT FLUX IS SMALL 
             ENOUGH TO BE TREATED AS ZERO. IF NOT, PLEASE USE THE SOLUTION 
             CONTROLS TO RESET THE CRITERION FOR ZERO HEAT FLUX.

 MAXIMUM NON-PRESCRIBED INCREMENT IN TEMPERATURE IS  -2.575E-03

 ITERATION SUMMARY FOR THE INCREMENT:   1 TOTAL ITERATIONS, OF WHICH
   0 ARE SEVERE DISCONTINUITY ITERATIONS AND  1 ARE EQUILIBRIUM ITERATIONS.

 TIME INCREMENT COMPLETED   7.16    ,  FRACTION OF STEP COMPLETED  3.000E-02
 STEP TIME COMPLETED        21.5    ,  TOTAL TIME COMPLETED        7.221E+03


  INCREMENT     4 STARTS. ATTEMPT NUMBER  1, TIME INCREMENT   7.16    
 
	UNSYMMETRIC NEW DIRECT SPARSE SOLVER RUNNING ON
 	1 HOST x 1 MPI RANK PER HOST x 6 THREADS PER RANK
        NUMBER OF EQUATIONS:  174160
        NUMBER OF RHS:        1
        NUMBER OF FLOPS:      2.375e+11
        SOLVER ELAPSED TIME:  1.4s

               CONVERGENCE CHECKS FOR EQUILIBRIUM ITERATION     1


 AVERAGE FORCE                      0.361       TIME AVG. FORCE       0.221    
 LARGEST SCALED RESIDUAL FORCE     -1.670E-07   AT NODE      42099   DOF  2
   INSTANCE: CHD2                                                                            
  CORRESPONDING RESIDUAL FORCE     -1.670E-07
 LARGEST INCREMENT OF DISP.         1.791E-05   AT NODE      42473   DOF  2
   INSTANCE: CHD2                                                                            
 LARGEST CORRECTION TO DISP.        1.882E-10   AT NODE      42139   DOF  2
   INSTANCE: CHD2                                                                            
          THE FORCE     EQUILIBRIUM EQUATIONS HAVE CONVERGED

 AVERAGE HEAT FLUX                  1.788E-16   TIME AVG. HEAT FLUX   1.000E-02
 LARGEST RESIDUAL HEAT FLUX        -1.117E-22   AT NODE      42811   DOF 11
   INSTANCE: CHD2                                                                            
 LARGEST INCREMENT OF TEMP.        -3.268E-03   AT NODE      19989   DOF 11
   INSTANCE: CHD2                                                                            
 LARGEST CORRECTION TO TEMP.        8.109E-04   AT NODE      14943   DOF 11
   INSTANCE: CHD2                                                                            
          THERE IS ZERO HEAT FLUX EVERYWHERE
 

 ***WARNING: THERE IS ZERO HEAT FLUX EVERYWHERE IN THE MODEL BASED ON THE 
             DEFAULT CRITERION. PLEASE CHECK THE VALUE OF THE AVERAGE HEAT FLUX 
             DURING THE CURRENT ITERATION TO VERIFY THAT THE HEAT FLUX IS SMALL 
             ENOUGH TO BE TREATED AS ZERO. IF NOT, PLEASE USE THE SOLUTION 
             CONTROLS TO RESET THE CRITERION FOR ZERO HEAT FLUX.

 MAXIMUM NON-PRESCRIBED INCREMENT IN TEMPERATURE IS  -3.268E-03

 ITERATION SUMMARY FOR THE INCREMENT:   1 TOTAL ITERATIONS, OF WHICH
   0 ARE SEVERE DISCONTINUITY ITERATIONS AND  1 ARE EQUILIBRIUM ITERATIONS.

 TIME INCREMENT COMPLETED   7.16    ,  FRACTION OF STEP COMPLETED  4.000E-02
 STEP TIME COMPLETED        28.6    ,  TOTAL TIME COMPLETED        7.229E+03


  INCREMENT     5 STARTS. ATTEMPT NUMBER  1, TIME INCREMENT   7.16    
 
	UNSYMMETRIC NEW DIRECT SPARSE SOLVER RUNNING ON
 	1 HOST x 1 MPI RANK PER HOST x 6 THREADS PER RANK
        NUMBER OF EQUATIONS:  174160
        NUMBER OF RHS:        1
        NUMBER OF FLOPS:      2.375e+11
        SOLVER ELAPSED TIME:  2.1s

               CONVERGENCE CHECKS FOR EQUILIBRIUM ITERATION     1


 AVERAGE FORCE                      0.451       TIME AVG. FORCE       0.267    
 LARGEST SCALED RESIDUAL FORCE     -2.178E-07   AT NODE      42099   DOF  2
   INSTANCE: CHD2                                                                            
  CORRESPONDING RESIDUAL FORCE     -2.178E-07
 LARGEST INCREMENT OF DISP.         1.791E-05   AT NODE      42473   DOF  2
   INSTANCE: CHD2                                                                            
 LARGEST CORRECTION TO DISP.        1.882E-10   AT NODE      42139   DOF  2
   INSTANCE: CHD2                                                                            
          THE FORCE     EQUILIBRIUM EQUATIONS HAVE CONVERGED

 AVERAGE HEAT FLUX                  1.831E-16   TIME AVG. HEAT FLUX   1.000E-02
 LARGEST RESIDUAL HEAT FLUX        -1.106E-22   AT NODE      42811   DOF 11
   INSTANCE: CHD2                                                                            
 LARGEST INCREMENT OF TEMP.         3.849E-03   AT NODE      15095   DOF 11
   INSTANCE: CHD2                                                                            
 LARGEST CORRECTION TO TEMP.        6.452E-04   AT NODE      14943   DOF 11
   INSTANCE: CHD2                                                                            
          THERE IS ZERO HEAT FLUX EVERYWHERE
 

 ***WARNING: THERE IS ZERO HEAT FLUX EVERYWHERE IN THE MODEL BASED ON THE 
             DEFAULT CRITERION. PLEASE CHECK THE VALUE OF THE AVERAGE HEAT FLUX 
             DURING THE CURRENT ITERATION TO VERIFY THAT THE HEAT FLUX IS SMALL 
             ENOUGH TO BE TREATED AS ZERO. IF NOT, PLEASE USE THE SOLUTION 
             CONTROLS TO RESET THE CRITERION FOR ZERO HEAT FLUX.

 MAXIMUM NON-PRESCRIBED INCREMENT IN TEMPERATURE IS   3.849E-03

 ITERATION SUMMARY FOR THE INCREMENT:   1 TOTAL ITERATIONS, OF WHICH
   0 ARE SEVERE DISCONTINUITY ITERATIONS AND  1 ARE EQUILIBRIUM ITERATIONS.

 TIME INCREMENT COMPLETED   7.16    ,  FRACTION OF STEP COMPLETED  5.000E-02
 STEP TIME COMPLETED        35.8    ,  TOTAL TIME COMPLETED        7.236E+03


  INCREMENT     6 STARTS. ATTEMPT NUMBER  1, TIME INCREMENT   7.16    
 
	UNSYMMETRIC NEW DIRECT SPARSE SOLVER RUNNING ON
 	1 HOST x 1 MPI RANK PER HOST x 6 THREADS PER RANK
        NUMBER OF EQUATIONS:  174160
        NUMBER OF RHS:        1
        NUMBER OF FLOPS:      2.375e+11
        SOLVER ELAPSED TIME:  2.5s

               CONVERGENCE CHECKS FOR EQUILIBRIUM ITERATION     1


 AVERAGE FORCE                      0.541       TIME AVG. FORCE       0.313    
 LARGEST SCALED RESIDUAL FORCE     -2.685E-07   AT NODE      42099   DOF  2
   INSTANCE: CHD2                                                                            
  CORRESPONDING RESIDUAL FORCE     -2.685E-07
 LARGEST INCREMENT OF DISP.         1.791E-05   AT NODE      42473   DOF  2
   INSTANCE: CHD2                                                                            
 LARGEST CORRECTION TO DISP.        1.882E-10   AT NODE      42139   DOF  2
   INSTANCE: CHD2                                                                            
          THE FORCE     EQUILIBRIUM EQUATIONS HAVE CONVERGED

 AVERAGE HEAT FLUX                  1.877E-16   TIME AVG. HEAT FLUX   1.000E-02
 LARGEST RESIDUAL HEAT FLUX        -1.094E-22   AT NODE      42811   DOF 11
   INSTANCE: CHD2                                                                            
 LARGEST INCREMENT OF TEMP.         4.366E-03   AT NODE      15095   DOF 11
   INSTANCE: CHD2                                                                            
 LARGEST CORRECTION TO TEMP.        5.208E-04   AT NODE      20897   DOF 11
   INSTANCE: CHD2                                                                            
          THERE IS ZERO HEAT FLUX EVERYWHERE
 

 ***WARNING: THERE IS ZERO HEAT FLUX EVERYWHERE IN THE MODEL BASED ON THE 
             DEFAULT CRITERION. PLEASE CHECK THE VALUE OF THE AVERAGE HEAT FLUX 
             DURING THE CURRENT ITERATION TO VERIFY THAT THE HEAT FLUX IS SMALL 
             ENOUGH TO BE TREATED AS ZERO. IF NOT, PLEASE USE THE SOLUTION 
             CONTROLS TO RESET THE CRITERION FOR ZERO HEAT FLUX.

 MAXIMUM NON-PRESCRIBED INCREMENT IN TEMPERATURE IS   4.366E-03

 ITERATION SUMMARY FOR THE INCREMENT:   1 TOTAL ITERATIONS, OF WHICH
   0 ARE SEVERE DISCONTINUITY ITERATIONS AND  1 ARE EQUILIBRIUM ITERATIONS.

 TIME INCREMENT COMPLETED   7.16    ,  FRACTION OF STEP COMPLETED  6.000E-02
 STEP TIME COMPLETED        43.0    ,  TOTAL TIME COMPLETED        7.243E+03


  INCREMENT     7 STARTS. ATTEMPT NUMBER  1, TIME INCREMENT   7.16    
 
	UNSYMMETRIC NEW DIRECT SPARSE SOLVER RUNNING ON
 	1 HOST x 1 MPI RANK PER HOST x 6 THREADS PER RANK
        NUMBER OF EQUATIONS:  174160
        NUMBER OF RHS:        1
        NUMBER OF FLOPS:      2.375e+11
        SOLVER ELAPSED TIME:  2.4s

               CONVERGENCE CHECKS FOR EQUILIBRIUM ITERATION     1


 AVERAGE FORCE                      0.632       TIME AVG. FORCE       0.358    
 LARGEST SCALED RESIDUAL FORCE     -3.192E-07   AT NODE      42099   DOF  2
   INSTANCE: CHD2                                                                            
  CORRESPONDING RESIDUAL FORCE     -3.192E-07
 LARGEST INCREMENT OF DISP.         1.791E-05   AT NODE      42473   DOF  2
   INSTANCE: CHD2                                                                            
 LARGEST CORRECTION TO DISP.        1.882E-10   AT NODE      42139   DOF  2
   INSTANCE: CHD2                                                                            
          THE FORCE     EQUILIBRIUM EQUATIONS HAVE CONVERGED

 AVERAGE HEAT FLUX                  1.924E-16   TIME AVG. HEAT FLUX   1.000E-02
 LARGEST RESIDUAL HEAT FLUX        -1.084E-22   AT NODE      42811   DOF 11
   INSTANCE: CHD2                                                                            
 LARGEST INCREMENT OF TEMP.         4.789E-03   AT NODE      14943   DOF 11
   INSTANCE: CHD2                                                                            
 LARGEST CORRECTION TO TEMP.        4.275E-04   AT NODE      20897   DOF 11
   INSTANCE: CHD2                                                                            
          THERE IS ZERO HEAT FLUX EVERYWHERE
 

 ***WARNING: THERE IS ZERO HEAT FLUX EVERYWHERE IN THE MODEL BASED ON THE 
             DEFAULT CRITERION. PLEASE CHECK THE VALUE OF THE AVERAGE HEAT FLUX 
             DURING THE CURRENT ITERATION TO VERIFY THAT THE HEAT FLUX IS SMALL 
             ENOUGH TO BE TREATED AS ZERO. IF NOT, PLEASE USE THE SOLUTION 
             CONTROLS TO RESET THE CRITERION FOR ZERO HEAT FLUX.

 MAXIMUM NON-PRESCRIBED INCREMENT IN TEMPERATURE IS   4.789E-03

 ITERATION SUMMARY FOR THE INCREMENT:   1 TOTAL ITERATIONS, OF WHICH
   0 ARE SEVERE DISCONTINUITY ITERATIONS AND  1 ARE EQUILIBRIUM ITERATIONS.

 TIME INCREMENT COMPLETED   7.16    ,  FRACTION OF STEP COMPLETED  7.000E-02
 STEP TIME COMPLETED        50.1    ,  TOTAL TIME COMPLETED        7.250E+03


  INCREMENT     8 STARTS. ATTEMPT NUMBER  1, TIME INCREMENT   7.16    
 
	UNSYMMETRIC NEW DIRECT SPARSE SOLVER RUNNING ON
 	1 HOST x 1 MPI RANK PER HOST x 6 THREADS PER RANK
        NUMBER OF EQUATIONS:  174160
        NUMBER OF RHS:        1
        NUMBER OF FLOPS:      2.375e+11
        SOLVER ELAPSED TIME:  2.4s

               CONVERGENCE CHECKS FOR EQUILIBRIUM ITERATION     1


 AVERAGE FORCE                      0.722       TIME AVG. FORCE       0.404    
 LARGEST SCALED RESIDUAL FORCE     -3.699E-07   AT NODE      42099   DOF  2
   INSTANCE: CHD2                                                                            
  CORRESPONDING RESIDUAL FORCE     -3.699E-07
 LARGEST INCREMENT OF DISP.         1.791E-05   AT NODE      42473   DOF  2
   INSTANCE: CHD2                                                                            
 LARGEST CORRECTION TO DISP.        1.882E-10   AT NODE      42139   DOF  2
   INSTANCE: CHD2                                                                            
          THE FORCE     EQUILIBRIUM EQUATIONS HAVE CONVERGED

 AVERAGE HEAT FLUX                  1.973E-16   TIME AVG. HEAT FLUX   1.000E-02
 LARGEST RESIDUAL HEAT FLUX        -1.072E-22   AT NODE      42734   DOF 11
   INSTANCE: CHD2                                                                            
 LARGEST INCREMENT OF TEMP.         5.141E-03   AT NODE      14943   DOF 11
   INSTANCE: CHD2                                                                            
 LARGEST CORRECTION TO TEMP.        3.550E-04   AT NODE      20897   DOF 11
   INSTANCE: CHD2                                                                            
          THERE IS ZERO HEAT FLUX EVERYWHERE
 

 ***WARNING: THERE IS ZERO HEAT FLUX EVERYWHERE IN THE MODEL BASED ON THE 
             DEFAULT CRITERION. PLEASE CHECK THE VALUE OF THE AVERAGE HEAT FLUX 
             DURING THE CURRENT ITERATION TO VERIFY THAT THE HEAT FLUX IS SMALL 
             ENOUGH TO BE TREATED AS ZERO. IF NOT, PLEASE USE THE SOLUTION 
             CONTROLS TO RESET THE CRITERION FOR ZERO HEAT FLUX.

 MAXIMUM NON-PRESCRIBED INCREMENT IN TEMPERATURE IS   5.141E-03

 ITERATION SUMMARY FOR THE INCREMENT:   1 TOTAL ITERATIONS, OF WHICH
   0 ARE SEVERE DISCONTINUITY ITERATIONS AND  1 ARE EQUILIBRIUM ITERATIONS.

 TIME INCREMENT COMPLETED   7.16    ,  FRACTION OF STEP COMPLETED  8.000E-02
 STEP TIME COMPLETED        57.3    ,  TOTAL TIME COMPLETED        7.257E+03


  INCREMENT     9 STARTS. ATTEMPT NUMBER  1, TIME INCREMENT   7.16    
 
	UNSYMMETRIC NEW DIRECT SPARSE SOLVER RUNNING ON
 	1 HOST x 1 MPI RANK PER HOST x 6 THREADS PER RANK
        NUMBER OF EQUATIONS:  174160
        NUMBER OF RHS:        1
        NUMBER OF FLOPS:      2.375e+11
        SOLVER ELAPSED TIME:  2.4s

               CONVERGENCE CHECKS FOR EQUILIBRIUM ITERATION     1


 AVERAGE FORCE                      0.812       TIME AVG. FORCE       0.449    
 LARGEST SCALED RESIDUAL FORCE     -4.206E-07   AT NODE      42099   DOF  2
   INSTANCE: CHD2                                                                            
  CORRESPONDING RESIDUAL FORCE     -4.206E-07
 LARGEST INCREMENT OF DISP.         1.791E-05   AT NODE      42473   DOF  2
   INSTANCE: CHD2                                                                            
 LARGEST CORRECTION TO DISP.        1.881E-10   AT NODE      42139   DOF  2
   INSTANCE: CHD2                                                                            
          THE FORCE     EQUILIBRIUM EQUATIONS HAVE CONVERGED

 AVERAGE HEAT FLUX                  2.023E-16   TIME AVG. HEAT FLUX   1.000E-02
 LARGEST RESIDUAL HEAT FLUX        -1.060E-22   AT NODE      42734   DOF 11
   INSTANCE: CHD2                                                                            
 LARGEST INCREMENT OF TEMP.         5.435E-03   AT NODE      14943   DOF 11
   INSTANCE: CHD2                                                                            
 LARGEST CORRECTION TO TEMP.        2.981E-04   AT NODE      20897   DOF 11
   INSTANCE: CHD2                                                                            
          THERE IS ZERO HEAT FLUX EVERYWHERE
 

 ***WARNING: THERE IS ZERO HEAT FLUX EVERYWHERE IN THE MODEL BASED ON THE 
             DEFAULT CRITERION. PLEASE CHECK THE VALUE OF THE AVERAGE HEAT FLUX 
             DURING THE CURRENT ITERATION TO VERIFY THAT THE HEAT FLUX IS SMALL 
             ENOUGH TO BE TREATED AS ZERO. IF NOT, PLEASE USE THE SOLUTION 
             CONTROLS TO RESET THE CRITERION FOR ZERO HEAT FLUX.

 MAXIMUM NON-PRESCRIBED INCREMENT IN TEMPERATURE IS   5.435E-03

 ITERATION SUMMARY FOR THE INCREMENT:   1 TOTAL ITERATIONS, OF WHICH
   0 ARE SEVERE DISCONTINUITY ITERATIONS AND  1 ARE EQUILIBRIUM ITERATIONS.

 TIME INCREMENT COMPLETED   7.16    ,  FRACTION OF STEP COMPLETED  9.000E-02
 STEP TIME COMPLETED        64.4    ,  TOTAL TIME COMPLETED        7.264E+03


  INCREMENT    10 STARTS. ATTEMPT NUMBER  1, TIME INCREMENT   7.16    
 
	UNSYMMETRIC NEW DIRECT SPARSE SOLVER RUNNING ON
 	1 HOST x 1 MPI RANK PER HOST x 6 THREADS PER RANK
        NUMBER OF EQUATIONS:  174160
        NUMBER OF RHS:        1
        NUMBER OF FLOPS:      2.375e+11
        SOLVER ELAPSED TIME:  2.4s

               CONVERGENCE CHECKS FOR EQUILIBRIUM ITERATION     1


 AVERAGE FORCE                      0.902       TIME AVG. FORCE       0.494    
 LARGEST SCALED RESIDUAL FORCE     -4.712E-07   AT NODE      42099   DOF  2
   INSTANCE: CHD2                                                                            
  CORRESPONDING RESIDUAL FORCE     -4.712E-07
 LARGEST INCREMENT OF DISP.         1.791E-05   AT NODE      42473   DOF  2
   INSTANCE: CHD2                                                                            
 LARGEST CORRECTION TO DISP.        1.881E-10   AT NODE      42139   DOF  2
   INSTANCE: CHD2                                                                            
          THE FORCE     EQUILIBRIUM EQUATIONS HAVE CONVERGED

 AVERAGE HEAT FLUX                  2.075E-16   TIME AVG. HEAT FLUX   1.000E-02
 LARGEST RESIDUAL HEAT FLUX         1.183E-22   AT NODE      43180   DOF 11
   INSTANCE: CHD2                                                                            
 LARGEST INCREMENT OF TEMP.         5.684E-03   AT NODE      14943   DOF 11
   INSTANCE: CHD2                                                                            
 LARGEST CORRECTION TO TEMP.        2.528E-04   AT NODE      20897   DOF 11
   INSTANCE: CHD2                                                                            
          THERE IS ZERO HEAT FLUX EVERYWHERE
 

 ***WARNING: THERE IS ZERO HEAT FLUX EVERYWHERE IN THE MODEL BASED ON THE 
             DEFAULT CRITERION. PLEASE CHECK THE VALUE OF THE AVERAGE HEAT FLUX 
             DURING THE CURRENT ITERATION TO VERIFY THAT THE HEAT FLUX IS SMALL 
             ENOUGH TO BE TREATED AS ZERO. IF NOT, PLEASE USE THE SOLUTION 
             CONTROLS TO RESET THE CRITERION FOR ZERO HEAT FLUX.

 MAXIMUM NON-PRESCRIBED INCREMENT IN TEMPERATURE IS   5.684E-03

 ITERATION SUMMARY FOR THE INCREMENT:   1 TOTAL ITERATIONS, OF WHICH
   0 ARE SEVERE DISCONTINUITY ITERATIONS AND  1 ARE EQUILIBRIUM ITERATIONS.

 TIME INCREMENT COMPLETED   7.16    ,  FRACTION OF STEP COMPLETED  0.100    
 STEP TIME COMPLETED        71.6    ,  TOTAL TIME COMPLETED        7.272E+03


  INCREMENT    11 STARTS. ATTEMPT NUMBER  1, TIME INCREMENT   7.16    
 
	UNSYMMETRIC NEW DIRECT SPARSE SOLVER RUNNING ON
 	1 HOST x 1 MPI RANK PER HOST x 6 THREADS PER RANK
        NUMBER OF EQUATIONS:  174160
        NUMBER OF RHS:        1
        NUMBER OF FLOPS:      2.375e+11
        SOLVER ELAPSED TIME:  2.4s

               CONVERGENCE CHECKS FOR EQUILIBRIUM ITERATION     1


 AVERAGE FORCE                      0.992       TIME AVG. FORCE       0.540    
 LARGEST SCALED RESIDUAL FORCE     -5.219E-07   AT NODE      42099   DOF  2
   INSTANCE: CHD2                                                                            
  CORRESPONDING RESIDUAL FORCE     -5.219E-07
 LARGEST INCREMENT OF DISP.         1.791E-05   AT NODE      42473   DOF  2
   INSTANCE: CHD2                                                                            
 LARGEST CORRECTION TO DISP.        1.881E-10   AT NODE      42139   DOF  2
   INSTANCE: CHD2                                                                            
          THE FORCE     EQUILIBRIUM EQUATIONS HAVE CONVERGED

 AVERAGE HEAT FLUX                  2.128E-16   TIME AVG. HEAT FLUX   1.000E-02
 LARGEST RESIDUAL HEAT FLUX         1.365E-22   AT NODE      43180   DOF 11
   INSTANCE: CHD2                                                                            
 LARGEST INCREMENT OF TEMP.         5.896E-03   AT NODE      14943   DOF 11
   INSTANCE: CHD2                                                                            
 LARGEST CORRECTION TO TEMP.        2.164E-04   AT NODE      20897   DOF 11
   INSTANCE: CHD2                                                                            
          THERE IS ZERO HEAT FLUX EVERYWHERE
 

 ***WARNING: THERE IS ZERO HEAT FLUX EVERYWHERE IN THE MODEL BASED ON THE 
             DEFAULT CRITERION. PLEASE CHECK THE VALUE OF THE AVERAGE HEAT FLUX 
             DURING THE CURRENT ITERATION TO VERIFY THAT THE HEAT FLUX IS SMALL 
             ENOUGH TO BE TREATED AS ZERO. IF NOT, PLEASE USE THE SOLUTION 
             CONTROLS TO RESET THE CRITERION FOR ZERO HEAT FLUX.

 MAXIMUM NON-PRESCRIBED INCREMENT IN TEMPERATURE IS   5.896E-03

 ITERATION SUMMARY FOR THE INCREMENT:   1 TOTAL ITERATIONS, OF WHICH
   0 ARE SEVERE DISCONTINUITY ITERATIONS AND  1 ARE EQUILIBRIUM ITERATIONS.

 TIME INCREMENT COMPLETED   7.16    ,  FRACTION OF STEP COMPLETED  0.110    
 STEP TIME COMPLETED        78.8    ,  TOTAL TIME COMPLETED        7.279E+03


  INCREMENT    12 STARTS. ATTEMPT NUMBER  1, TIME INCREMENT   7.16    
 
	UNSYMMETRIC NEW DIRECT SPARSE SOLVER RUNNING ON
 	1 HOST x 1 MPI RANK PER HOST x 6 THREADS PER RANK
        NUMBER OF EQUATIONS:  174160
        NUMBER OF RHS:        1
        NUMBER OF FLOPS:      2.375e+11
        SOLVER ELAPSED TIME:  2.4s

               CONVERGENCE CHECKS FOR EQUILIBRIUM ITERATION     1


 AVERAGE FORCE                       1.08       TIME AVG. FORCE       0.585    
 LARGEST SCALED RESIDUAL FORCE     -5.724E-07   AT NODE      42099   DOF  2
   INSTANCE: CHD2                                                                            
  CORRESPONDING RESIDUAL FORCE     -5.724E-07
 LARGEST INCREMENT OF DISP.         1.791E-05   AT NODE      42473   DOF  2
   INSTANCE: CHD2                                                                            
 LARGEST CORRECTION TO DISP.        1.881E-10   AT NODE      42139   DOF  2
   INSTANCE: CHD2                                                                            
          THE FORCE     EQUILIBRIUM EQUATIONS HAVE CONVERGED

 AVERAGE HEAT FLUX                  2.182E-16   TIME AVG. HEAT FLUX   1.000E-02
 LARGEST RESIDUAL HEAT FLUX         1.547E-22   AT NODE      43180   DOF 11
   INSTANCE: CHD2                                                                            
 LARGEST INCREMENT OF TEMP.         6.079E-03   AT NODE      14943   DOF 11
   INSTANCE: CHD2                                                                            
 LARGEST CORRECTION TO TEMP.        1.875E-04   AT NODE      14864   DOF 11
   INSTANCE: CHD2                                                                            
          THERE IS ZERO HEAT FLUX EVERYWHERE
 

 ***WARNING: THERE IS ZERO HEAT FLUX EVERYWHERE IN THE MODEL BASED ON THE 
             DEFAULT CRITERION. PLEASE CHECK THE VALUE OF THE AVERAGE HEAT FLUX 
             DURING THE CURRENT ITERATION TO VERIFY THAT THE HEAT FLUX IS SMALL 
             ENOUGH TO BE TREATED AS ZERO. IF NOT, PLEASE USE THE SOLUTION 
             CONTROLS TO RESET THE CRITERION FOR ZERO HEAT FLUX.

 MAXIMUM NON-PRESCRIBED INCREMENT IN TEMPERATURE IS   6.079E-03

 ITERATION SUMMARY FOR THE INCREMENT:   1 TOTAL ITERATIONS, OF WHICH
   0 ARE SEVERE DISCONTINUITY ITERATIONS AND  1 ARE EQUILIBRIUM ITERATIONS.

 TIME INCREMENT COMPLETED   7.16    ,  FRACTION OF STEP COMPLETED  0.120    
 STEP TIME COMPLETED        85.9    ,  TOTAL TIME COMPLETED        7.286E+03


  INCREMENT    13 STARTS. ATTEMPT NUMBER  1, TIME INCREMENT   7.16    
 
	UNSYMMETRIC NEW DIRECT SPARSE SOLVER RUNNING ON
 	1 HOST x 1 MPI RANK PER HOST x 6 THREADS PER RANK
        NUMBER OF EQUATIONS:  174160
        NUMBER OF RHS:        1
        NUMBER OF FLOPS:      2.375e+11
        SOLVER ELAPSED TIME:  1.4s

               CONVERGENCE CHECKS FOR EQUILIBRIUM ITERATION     1


 AVERAGE FORCE                       1.17       TIME AVG. FORCE       0.630    
 LARGEST SCALED RESIDUAL FORCE     -6.230E-07   AT NODE      42099   DOF  2
   INSTANCE: CHD2                                                                            
  CORRESPONDING RESIDUAL FORCE     -6.230E-07
 LARGEST INCREMENT OF DISP.         1.791E-05   AT NODE      42473   DOF  2
   INSTANCE: CHD2                                                                            
 LARGEST CORRECTION TO DISP.        1.880E-10   AT NODE      42139   DOF  2
   INSTANCE: CHD2                                                                            
          THE FORCE     EQUILIBRIUM EQUATIONS HAVE CONVERGED

 AVERAGE HEAT FLUX                  2.237E-16   TIME AVG. HEAT FLUX   1.000E-02
 LARGEST RESIDUAL HEAT FLUX         1.729E-22   AT NODE      43180   DOF 11
   INSTANCE: CHD2                                                                            
 LARGEST INCREMENT OF TEMP.         6.237E-03   AT NODE      14943   DOF 11
   INSTANCE: CHD2                                                                            
 LARGEST CORRECTION TO TEMP.        1.716E-04   AT NODE      14864   DOF 11
   INSTANCE: CHD2                                                                            
          THERE IS ZERO HEAT FLUX EVERYWHERE
 

 ***WARNING: THERE IS ZERO HEAT FLUX EVERYWHERE IN THE MODEL BASED ON THE 
             DEFAULT CRITERION. PLEASE CHECK THE VALUE OF THE AVERAGE HEAT FLUX 
             DURING THE CURRENT ITERATION TO VERIFY THAT THE HEAT FLUX IS SMALL 
             ENOUGH TO BE TREATED AS ZERO. IF NOT, PLEASE USE THE SOLUTION 
             CONTROLS TO RESET THE CRITERION FOR ZERO HEAT FLUX.

 MAXIMUM NON-PRESCRIBED INCREMENT IN TEMPERATURE IS   6.237E-03

 ITERATION SUMMARY FOR THE INCREMENT:   1 TOTAL ITERATIONS, OF WHICH
   0 ARE SEVERE DISCONTINUITY ITERATIONS AND  1 ARE EQUILIBRIUM ITERATIONS.

 TIME INCREMENT COMPLETED   7.16    ,  FRACTION OF STEP COMPLETED  0.130    
 STEP TIME COMPLETED        93.1    ,  TOTAL TIME COMPLETED        7.293E+03


  INCREMENT    14 STARTS. ATTEMPT NUMBER  1, TIME INCREMENT   7.16    
 
	UNSYMMETRIC NEW DIRECT SPARSE SOLVER RUNNING ON
 	1 HOST x 1 MPI RANK PER HOST x 6 THREADS PER RANK
        NUMBER OF EQUATIONS:  174160
        NUMBER OF RHS:        1
        NUMBER OF FLOPS:      2.375e+11
        SOLVER ELAPSED TIME:  1.5s

               CONVERGENCE CHECKS FOR EQUILIBRIUM ITERATION     1


[...]
             ENOUGH TO BE TREATED AS ZERO. IF NOT, PLEASE USE THE SOLUTION 
             CONTROLS TO RESET THE CRITERION FOR ZERO HEAT FLUX.

 MAXIMUM NON-PRESCRIBED INCREMENT IN TEMPERATURE IS  -2.816E-02
          TIME INCREMENT REDUCED TO    5.84     TO MEET NEXT OUTPUT TIME POINT

 ITERATION SUMMARY FOR THE INCREMENT:   1 TOTAL ITERATIONS, OF WHICH
   0 ARE SEVERE DISCONTINUITY ITERATIONS AND  1 ARE EQUILIBRIUM ITERATIONS.

 TIME INCREMENT COMPLETED   7.16    ,  FRACTION OF STEP COMPLETED  0.760    
 STEP TIME COMPLETED        544.    ,  TOTAL TIME COMPLETED        7.744E+03


  INCREMENT    78 STARTS. ATTEMPT NUMBER  1, TIME INCREMENT   5.84    
 
	UNSYMMETRIC NEW DIRECT SPARSE SOLVER RUNNING ON
 	1 HOST x 1 MPI RANK PER HOST x 6 THREADS PER RANK
        NUMBER OF EQUATIONS:  174160
        NUMBER OF RHS:        1
        NUMBER OF FLOPS:      2.375e+11
        SOLVER ELAPSED TIME:  2.4s

               CONVERGENCE CHECKS FOR EQUILIBRIUM ITERATION     1


 AVERAGE FORCE                       3.89       TIME AVG. FORCE        2.77    
 LARGEST SCALED RESIDUAL FORCE     -3.287E-03   AT NODE      18544   DOF  2
   INSTANCE: CHD2                                                                            
  CORRESPONDING RESIDUAL FORCE     -3.287E-03
 LARGEST INCREMENT OF DISP.         1.461E-05   AT NODE      42473   DOF  2
   INSTANCE: CHD2                                                                            
 LARGEST CORRECTION TO DISP.        2.490E-07   AT NODE      40429   DOF  2
   INSTANCE: CHD2                                                                            
 ESTIMATE OF DISP.    CORRECTION    1.092E-09
 FORCE     EQUILIB. ACCEPTED BASED ON SMALL RESIDUAL AND ESTIMATED CORRECTION

 AVERAGE HEAT FLUX                  9.098E-16   TIME AVG. HEAT FLUX   1.000E-02
 LARGEST RESIDUAL HEAT FLUX        -3.622E-15   AT NODE      40882   DOF 11
   INSTANCE: CHD2                                                                            
 LARGEST INCREMENT OF TEMP.        -2.527E-02   AT NODE      20863   DOF 11
   INSTANCE: CHD2                                                                            
 LARGEST CORRECTION TO TEMP.       -2.306E-03   AT NODE      16675   DOF 11
   INSTANCE: CHD2                                                                            
          THERE IS ZERO HEAT FLUX EVERYWHERE
 

 ***WARNING: THERE IS ZERO HEAT FLUX EVERYWHERE IN THE MODEL BASED ON THE 
             DEFAULT CRITERION. PLEASE CHECK THE VALUE OF THE AVERAGE HEAT FLUX 
             DURING THE CURRENT ITERATION TO VERIFY THAT THE HEAT FLUX IS SMALL 
             ENOUGH TO BE TREATED AS ZERO. IF NOT, PLEASE USE THE SOLUTION 
             CONTROLS TO RESET THE CRITERION FOR ZERO HEAT FLUX.

 MAXIMUM NON-PRESCRIBED INCREMENT IN TEMPERATURE IS  -2.527E-02
          TIME INCREMENT REDUCED TO    1.32     TO MEET NEXT OUTPUT TIME POINT

 ITERATION SUMMARY FOR THE INCREMENT:   1 TOTAL ITERATIONS, OF WHICH
   0 ARE SEVERE DISCONTINUITY ITERATIONS AND  1 ARE EQUILIBRIUM ITERATIONS.

 TIME INCREMENT COMPLETED   5.84    ,  FRACTION OF STEP COMPLETED  0.768    
 STEP TIME COMPLETED        550.    ,  TOTAL TIME COMPLETED        7.750E+03


  INCREMENT    79 STARTS. ATTEMPT NUMBER  1, TIME INCREMENT   1.32    
 
	UNSYMMETRIC NEW DIRECT SPARSE SOLVER RUNNING ON
 	1 HOST x 1 MPI RANK PER HOST x 6 THREADS PER RANK
        NUMBER OF EQUATIONS:  174160
        NUMBER OF RHS:        1
        NUMBER OF FLOPS:      2.375e+11
        SOLVER ELAPSED TIME:  2.4s

               CONVERGENCE CHECKS FOR EQUILIBRIUM ITERATION     1


 AVERAGE FORCE                       3.89       TIME AVG. FORCE        2.79    
 LARGEST SCALED RESIDUAL FORCE      1.336E-04   AT NODE      33073   DOF  2
   INSTANCE: CHD2                                                                            
  CORRESPONDING RESIDUAL FORCE      1.336E-04
 LARGEST INCREMENT OF DISP.         3.302E-06   AT NODE      42473   DOF  2
   INSTANCE: CHD2                                                                            
 LARGEST CORRECTION TO DISP.        2.266E-08   AT NODE      40058   DOF  2
   INSTANCE: CHD2                                                                            
          THE FORCE     EQUILIBRIUM EQUATIONS HAVE CONVERGED

 AVERAGE HEAT FLUX                  9.171E-16   TIME AVG. HEAT FLUX   1.000E-02
 LARGEST RESIDUAL HEAT FLUX         8.773E-16   AT NODE      41930   DOF 11
   INSTANCE: CHD2                                                                            
 LARGEST INCREMENT OF TEMP.        -6.741E-03   AT NODE      20863   DOF 11
   INSTANCE: CHD2                                                                            
 LARGEST CORRECTION TO TEMP.       -1.029E-03   AT NODE      20863   DOF 11
   INSTANCE: CHD2                                                                            
          THERE IS ZERO HEAT FLUX EVERYWHERE
 

 ***WARNING: THERE IS ZERO HEAT FLUX EVERYWHERE IN THE MODEL BASED ON THE 
             DEFAULT CRITERION. PLEASE CHECK THE VALUE OF THE AVERAGE HEAT FLUX 
             DURING THE CURRENT ITERATION TO VERIFY THAT THE HEAT FLUX IS SMALL 
             ENOUGH TO BE TREATED AS ZERO. IF NOT, PLEASE USE THE SOLUTION 
             CONTROLS TO RESET THE CRITERION FOR ZERO HEAT FLUX.

 MAXIMUM NON-PRESCRIBED INCREMENT IN TEMPERATURE IS  -6.741E-03
          TIME INCREMENT REDUCED TO    2.68     TO MEET NEXT OUTPUT TIME POINT

 ITERATION SUMMARY FOR THE INCREMENT:   1 TOTAL ITERATIONS, OF WHICH
   0 ARE SEVERE DISCONTINUITY ITERATIONS AND  1 ARE EQUILIBRIUM ITERATIONS.

 TIME INCREMENT COMPLETED   1.32    ,  FRACTION OF STEP COMPLETED  0.770    
 STEP TIME COMPLETED        551.    ,  TOTAL TIME COMPLETED        7.751E+03


  INCREMENT    80 STARTS. ATTEMPT NUMBER  1, TIME INCREMENT   2.68    
 
	UNSYMMETRIC NEW DIRECT SPARSE SOLVER RUNNING ON
 	1 HOST x 1 MPI RANK PER HOST x 6 THREADS PER RANK
        NUMBER OF EQUATIONS:  174160
        NUMBER OF RHS:        1
        NUMBER OF FLOPS:      2.375e+11
        SOLVER ELAPSED TIME:  2.4s

               CONVERGENCE CHECKS FOR EQUILIBRIUM ITERATION     1


 AVERAGE FORCE                       3.89       TIME AVG. FORCE        2.80    
 LARGEST SCALED RESIDUAL FORCE     -6.123E-04   AT NODE      18544   DOF  2
   INSTANCE: CHD2                                                                            
  CORRESPONDING RESIDUAL FORCE     -6.123E-04
 LARGEST INCREMENT OF DISP.         6.704E-06   AT NODE      42473   DOF  2
   INSTANCE: CHD2                                                                            
 LARGEST CORRECTION TO DISP.        8.409E-08   AT NODE      15099   DOF  2
   INSTANCE: CHD2                                                                            
 ESTIMATE OF DISP.    CORRECTION   -9.184E-10
 FORCE     EQUILIB. ACCEPTED BASED ON SMALL RESIDUAL AND ESTIMATED CORRECTION

 AVERAGE HEAT FLUX                  9.187E-16   TIME AVG. HEAT FLUX   1.000E-02
 LARGEST RESIDUAL HEAT FLUX        -1.696E-15   AT NODE      39833   DOF 11
   INSTANCE: CHD2                                                                            
 LARGEST INCREMENT OF TEMP.        -1.328E-02   AT NODE      20863   DOF 11
   INSTANCE: CHD2                                                                            
 LARGEST CORRECTION TO TEMP.       -5.326E-04   AT NODE      14863   DOF 11
   INSTANCE: CHD2                                                                            
          THERE IS ZERO HEAT FLUX EVERYWHERE
 

 ***WARNING: THERE IS ZERO HEAT FLUX EVERYWHERE IN THE MODEL BASED ON THE 
             DEFAULT CRITERION. PLEASE CHECK THE VALUE OF THE AVERAGE HEAT FLUX 
             DURING THE CURRENT ITERATION TO VERIFY THAT THE HEAT FLUX IS SMALL 
             ENOUGH TO BE TREATED AS ZERO. IF NOT, PLEASE USE THE SOLUTION 
             CONTROLS TO RESET THE CRITERION FOR ZERO HEAT FLUX.

 MAXIMUM NON-PRESCRIBED INCREMENT IN TEMPERATURE IS  -1.328E-02
          TIME INCREMENT REDUCED TO    4.48     TO MEET NEXT OUTPUT TIME POINT

 ITERATION SUMMARY FOR THE INCREMENT:   1 TOTAL ITERATIONS, OF WHICH
   0 ARE SEVERE DISCONTINUITY ITERATIONS AND  1 ARE EQUILIBRIUM ITERATIONS.

 TIME INCREMENT COMPLETED   2.68    ,  FRACTION OF STEP COMPLETED  0.774    
 STEP TIME COMPLETED        554.    ,  TOTAL TIME COMPLETED        7.754E+03


  INCREMENT    81 STARTS. ATTEMPT NUMBER  1, TIME INCREMENT   4.48    
 
	UNSYMMETRIC NEW DIRECT SPARSE SOLVER RUNNING ON
 	1 HOST x 1 MPI RANK PER HOST x 6 THREADS PER RANK
        NUMBER OF EQUATIONS:  174160
        NUMBER OF RHS:        1
        NUMBER OF FLOPS:      2.375e+11
        SOLVER ELAPSED TIME:  2.4s

               CONVERGENCE CHECKS FOR EQUILIBRIUM ITERATION     1


 AVERAGE FORCE                       3.89       TIME AVG. FORCE        2.82    
 LARGEST SCALED RESIDUAL FORCE     -3.275E-03   AT NODE      18544   DOF  2
   INSTANCE: CHD2                                                                            
  CORRESPONDING RESIDUAL FORCE     -3.275E-03
 LARGEST INCREMENT OF DISP.         1.121E-05   AT NODE      42473   DOF  2
   INSTANCE: CHD2                                                                            
 LARGEST CORRECTION TO DISP.        2.505E-07   AT NODE      14703   DOF  2
   INSTANCE: CHD2                                                                            
 ESTIMATE OF DISP.    CORRECTION   -5.820E-09
 FORCE     EQUILIB. ACCEPTED BASED ON SMALL RESIDUAL AND ESTIMATED CORRECTION

 AVERAGE HEAT FLUX                  9.225E-16   TIME AVG. HEAT FLUX   1.000E-02
 LARGEST RESIDUAL HEAT FLUX         2.513E-15   AT NODE      41930   DOF 11
   INSTANCE: CHD2                                                                            
 LARGEST INCREMENT OF TEMP.        -2.184E-02   AT NODE      20863   DOF 11
   INSTANCE: CHD2                                                                            
 LARGEST CORRECTION TO TEMP.       -1.423E-03   AT NODE      14863   DOF 11
   INSTANCE: CHD2                                                                            
          THERE IS ZERO HEAT FLUX EVERYWHERE
 

 ***WARNING: THERE IS ZERO HEAT FLUX EVERYWHERE IN THE MODEL BASED ON THE 
             DEFAULT CRITERION. PLEASE CHECK THE VALUE OF THE AVERAGE HEAT FLUX 
             DURING THE CURRENT ITERATION TO VERIFY THAT THE HEAT FLUX IS SMALL 
             ENOUGH TO BE TREATED AS ZERO. IF NOT, PLEASE USE THE SOLUTION 
             CONTROLS TO RESET THE CRITERION FOR ZERO HEAT FLUX.

 MAXIMUM NON-PRESCRIBED INCREMENT IN TEMPERATURE IS  -2.184E-02

 ITERATION SUMMARY FOR THE INCREMENT:   1 TOTAL ITERATIONS, OF WHICH
   0 ARE SEVERE DISCONTINUITY ITERATIONS AND  1 ARE EQUILIBRIUM ITERATIONS.

 TIME INCREMENT COMPLETED   4.48    ,  FRACTION OF STEP COMPLETED  0.780    
 STEP TIME COMPLETED        558.    ,  TOTAL TIME COMPLETED        7.758E+03


  INCREMENT    82 STARTS. ATTEMPT NUMBER  1, TIME INCREMENT   7.16    
 
	UNSYMMETRIC NEW DIRECT SPARSE SOLVER RUNNING ON
 	1 HOST x 1 MPI RANK PER HOST x 6 THREADS PER RANK
        NUMBER OF EQUATIONS:  174160
        NUMBER OF RHS:        1
        NUMBER OF FLOPS:      2.375e+11
        SOLVER ELAPSED TIME:  2.4s

               CONVERGENCE CHECKS FOR EQUILIBRIUM ITERATION     1


 AVERAGE FORCE                       3.89       TIME AVG. FORCE        2.83    
 LARGEST SCALED RESIDUAL FORCE     -1.769E-02   AT NODE      18544   DOF  2
   INSTANCE: CHD2                                                                            
  CORRESPONDING RESIDUAL FORCE     -1.769E-02
 LARGEST INCREMENT OF DISP.         1.791E-05   AT NODE      42473   DOF  2
   INSTANCE: CHD2                                                                            
 LARGEST CORRECTION TO DISP.        8.929E-07   AT NODE      14703   DOF  2
   INSTANCE: CHD2                                                                            
          FORCE     EQUILIBRIUM NOT ACHIEVED WITHIN TOLERANCE.

 AVERAGE HEAT FLUX                  9.305E-16   TIME AVG. HEAT FLUX   1.000E-02
 LARGEST RESIDUAL HEAT FLUX         5.694E-15   AT NODE      41930   DOF 11
   INSTANCE: CHD2                                                                            
 LARGEST INCREMENT OF TEMP.        -3.524E-02   AT NODE      20863   DOF 11
   INSTANCE: CHD2                                                                            
 LARGEST CORRECTION TO TEMP.       -3.637E-03   AT NODE      14863   DOF 11
   INSTANCE: CHD2                                                                            
          THERE IS ZERO HEAT FLUX EVERYWHERE
 

 ***WARNING: THERE IS ZERO HEAT FLUX EVERYWHERE IN THE MODEL BASED ON THE 
             DEFAULT CRITERION. PLEASE CHECK THE VALUE OF THE AVERAGE HEAT FLUX 
             DURING THE CURRENT ITERATION TO VERIFY THAT THE HEAT FLUX IS SMALL 
             ENOUGH TO BE TREATED AS ZERO. IF NOT, PLEASE USE THE SOLUTION 
             CONTROLS TO RESET THE CRITERION FOR ZERO HEAT FLUX.
 
	UNSYMMETRIC NEW DIRECT SPARSE SOLVER RUNNING ON
 	1 HOST x 1 MPI RANK PER HOST x 6 THREADS PER RANK
        NUMBER OF EQUATIONS:  174160
        NUMBER OF RHS:        1
        NUMBER OF FLOPS:      2.375e+11
        SOLVER ELAPSED TIME:  2.4s

               CONVERGENCE CHECKS FOR EQUILIBRIUM ITERATION     2


 AVERAGE FORCE                       3.89       TIME AVG. FORCE        2.83    
 LARGEST SCALED RESIDUAL FORCE     -8.522E-04   AT NODE      25256   DOF  1
   INSTANCE: CHD2                                                                            
  CORRESPONDING RESIDUAL FORCE     -8.522E-04
 LARGEST INCREMENT OF DISP.         1.791E-05   AT NODE      42473   DOF  2
   INSTANCE: CHD2                                                                            
 LARGEST CORRECTION TO DISP.       -1.721E-08   AT NODE      15098   DOF  2
   INSTANCE: CHD2                                                                            
          THE FORCE     EQUILIBRIUM EQUATIONS HAVE CONVERGED

 AVERAGE HEAT FLUX                  9.262E-16   TIME AVG. HEAT FLUX   1.000E-02
 LARGEST RESIDUAL HEAT FLUX         3.438E-16   AT NODE      37092   DOF 11
   INSTANCE: CHD2                                                                            
 LARGEST INCREMENT OF TEMP.        -3.581E-02   AT NODE      20863   DOF 11
   INSTANCE: CHD2                                                                            
 LARGEST CORRECTION TO TEMP.       -1.060E-02   AT NODE      14864   DOF 11
   INSTANCE: CHD2                                                                            
          THERE IS ZERO HEAT FLUX EVERYWHERE
 

 ***WARNING: THERE IS ZERO HEAT FLUX EVERYWHERE IN THE MODEL BASED ON THE 
             DEFAULT CRITERION. PLEASE CHECK THE VALUE OF THE AVERAGE HEAT FLUX 
             DURING THE CURRENT ITERATION TO VERIFY THAT THE HEAT FLUX IS SMALL 
             ENOUGH TO BE TREATED AS ZERO. IF NOT, PLEASE USE THE SOLUTION 
             CONTROLS TO RESET THE CRITERION FOR ZERO HEAT FLUX.

 MAXIMUM NON-PRESCRIBED INCREMENT IN TEMPERATURE IS  -3.581E-02

 ITERATION SUMMARY FOR THE INCREMENT:   2 TOTAL ITERATIONS, OF WHICH
   0 ARE SEVERE DISCONTINUITY ITERATIONS AND  2 ARE EQUILIBRIUM ITERATIONS.

 TIME INCREMENT COMPLETED   7.16    ,  FRACTION OF STEP COMPLETED  0.790    
 STEP TIME COMPLETED        566.    ,  TOTAL TIME COMPLETED        7.766E+03


  INCREMENT    83 STARTS. ATTEMPT NUMBER  1, TIME INCREMENT   7.16    
 
	UNSYMMETRIC NEW DIRECT SPARSE SOLVER RUNNING ON
 	1 HOST x 1 MPI RANK PER HOST x 6 THREADS PER RANK
        NUMBER OF EQUATIONS:  174160
        NUMBER OF RHS:        1
        NUMBER OF FLOPS:      2.375e+11
        SOLVER ELAPSED TIME:  2.6s

               CONVERGENCE CHECKS FOR EQUILIBRIUM ITERATION     1


 AVERAGE FORCE                       3.89       TIME AVG. FORCE        2.84    
 LARGEST SCALED RESIDUAL FORCE     -8.131E-02   AT NODE      37176   DOF  2
   INSTANCE: CHD2                                                                            
  CORRESPONDING RESIDUAL FORCE     -8.131E-02
 LARGEST INCREMENT OF DISP.         1.791E-05   AT NODE      42473   DOF  2
   INSTANCE: CHD2                                                                            
 LARGEST CORRECTION TO DISP.        1.836E-06   AT NODE      14703   DOF  2
   INSTANCE: CHD2                                                                            
          FORCE     EQUILIBRIUM NOT ACHIEVED WITHIN TOLERANCE.

 AVERAGE HEAT FLUX                  9.501E-16   TIME AVG. HEAT FLUX   1.000E-02
 LARGEST RESIDUAL HEAT FLUX         1.168E-14   AT NODE      43133   DOF 11
   INSTANCE: CHD2                                                                            
 LARGEST INCREMENT OF TEMP.        -4.101E-02   AT NODE      20863   DOF 11
   INSTANCE: CHD2                                                                            
 LARGEST CORRECTION TO TEMP.       -5.200E-03   AT NODE      20863   DOF 11
   INSTANCE: CHD2                                                                            
          THERE IS ZERO HEAT FLUX EVERYWHERE
 

 ***WARNING: THERE IS ZERO HEAT FLUX EVERYWHERE IN THE MODEL BASED ON THE 
             DEFAULT CRITERION. PLEASE CHECK THE VALUE OF THE AVERAGE HEAT FLUX 
             DURING THE CURRENT ITERATION TO VERIFY THAT THE HEAT FLUX IS SMALL 
             ENOUGH TO BE TREATED AS ZERO. IF NOT, PLEASE USE THE SOLUTION 
             CONTROLS TO RESET THE CRITERION FOR ZERO HEAT FLUX.
 
	UNSYMMETRIC NEW DIRECT SPARSE SOLVER RUNNING ON
 	1 HOST x 1 MPI RANK PER HOST x 6 THREADS PER RANK
        NUMBER OF EQUATIONS:  174160
        NUMBER OF RHS:        1
        NUMBER OF FLOPS:      2.375e+11
        SOLVER ELAPSED TIME:  2.2s

               CONVERGENCE CHECKS FOR EQUILIBRIUM ITERATION     2


 AVERAGE FORCE                       3.89       TIME AVG. FORCE        2.84    
 LARGEST SCALED RESIDUAL FORCE     -5.427E-03   AT NODE      37190   DOF  2
   INSTANCE: CHD2                                                                            
  CORRESPONDING RESIDUAL FORCE     -5.427E-03
 LARGEST INCREMENT OF DISP.         1.791E-05   AT NODE      42473   DOF  2
   INSTANCE: CHD2                                                                            
 LARGEST CORRECTION TO DISP.       -3.572E-08   AT NODE      14695   DOF  1
   INSTANCE: CHD2                                                                            
          THE FORCE     EQUILIBRIUM EQUATIONS HAVE CONVERGED

 AVERAGE HEAT FLUX                  9.389E-16   TIME AVG. HEAT FLUX   1.000E-02
 LARGEST RESIDUAL HEAT FLUX         5.612E-16   AT NODE      37092   DOF 11
   INSTANCE: CHD2                                                                            
 LARGEST INCREMENT OF TEMP.        -4.216E-02   AT NODE      20863   DOF 11
   INSTANCE: CHD2                                                                            
 LARGEST CORRECTION TO TEMP.       -2.152E-02   AT NODE      14864   DOF 11
   INSTANCE: CHD2                                                                            
          THERE IS ZERO HEAT FLUX EVERYWHERE
 

 ***WARNING: THERE IS ZERO HEAT FLUX EVERYWHERE IN THE MODEL BASED ON THE 
             DEFAULT CRITERION. PLEASE CHECK THE VALUE OF THE AVERAGE HEAT FLUX 
             DURING THE CURRENT ITERATION TO VERIFY THAT THE HEAT FLUX IS SMALL 
             ENOUGH TO BE TREATED AS ZERO. IF NOT, PLEASE USE THE SOLUTION 
             CONTROLS TO RESET THE CRITERION FOR ZERO HEAT FLUX.

 MAXIMUM NON-PRESCRIBED INCREMENT IN TEMPERATURE IS  -4.216E-02

 ITERATION SUMMARY FOR THE INCREMENT:   2 TOTAL ITERATIONS, OF WHICH
   0 ARE SEVERE DISCONTINUITY ITERATIONS AND  2 ARE EQUILIBRIUM ITERATIONS.

 TIME INCREMENT COMPLETED   7.16    ,  FRACTION OF STEP COMPLETED  0.800    
 STEP TIME COMPLETED        573.    ,  TOTAL TIME COMPLETED        7.773E+03


  INCREMENT    84 STARTS. ATTEMPT NUMBER  1, TIME INCREMENT   7.16    
