 Abaqus/Standard 2023.HF4                  DATE 01-Nov-2024 TIME 13:20:11
 SUMMARY OF JOB INFORMATION:
 STEP  INC ATT SEVERE EQUIL TOTAL  TOTAL      STEP       INC OF       DOF    IF
               DISCON ITERS ITERS  TIME/    TIME/LPF    TIME/LPF    MONITOR RIKS
               ITERS               FREQ
   1     1   1     0     1     1  1.44e+03   1.44e+03   1440.     
   1     2   1     0     1     1  2.88e+03   2.88e+03   1440.     
   1     3   1     0     1     1  4.32e+03   4.32e+03   1440.     
   1     4   1     0     1     1  5.76e+03   5.76e+03   1440.     
   1     5   1     0     1     1  7.20e+03   7.20e+03   1440.     
   2     1   1     0     2     2  7.21e+03   7.16       7.160     
   2     2   1     0     1     1  7.21e+03   14.3       7.160     
   2     3   1     0     1     1  7.22e+03   21.5       7.160     
   2     4   1     0     1     1  7.23e+03   28.6       7.160     
   2     5   1     0     1     1  7.24e+03   35.8       7.160     
   2     6   1     0     1     1  7.24e+03   43.0       7.160     
   2     7   1     0     1     1  7.25e+03   50.1       7.160     
   2     8   1     0     1     1  7.26e+03   57.3       7.160     
   2     9   1     0     1     1  7.26e+03   64.4       7.160     
   2    10   1     0     1     1  7.27e+03   71.6       7.160     
   2    11   1     0     1     1  7.28e+03   78.8       7.160     
   2    12   1     0     1     1  7.29e+03   85.9       7.160     
   2    13   1     0     1     1  7.29e+03   93.1       7.160     
   2    14   1     0     1     1  7.30e+03   100.       7.160     
   2    15   1     0     1     1  7.31e+03   107.       7.160     
   2    16   1     0     1     1  7.31e+03   115.       7.160     
   2    17   1     0     1     1  7.32e+03   122.       7.160     
   2    18   1     0     1     1  7.33e+03   129.       7.160     
   2    19   1     0     2     2  7.34e+03   136.       7.160     
   2    20   1     0     1     1  7.34e+03   143.       7.160     
   2    21   1     0     1     1  7.35e+03   150.       7.160     
   2    22   1     0     1     1  7.36e+03   158.       7.160     
   2    23   1     0     2     2  7.36e+03   165.       7.160     
   2    24   1     0     1     1  7.37e+03   172.       7.160     
   2    25   1     0     1     1  7.38e+03   179.       7.160     
   2    26   1     0     2     2  7.39e+03   186.       7.160     
   2    27   1     0     2     2  7.39e+03   193.       7.160     
   2    28   1     0     1     1  7.40e+03   200.       7.160     
   2    29   1     0     1     1  7.41e+03   208.       7.160     
   2    30   1     0     2     2  7.41e+03   215.       7.160     
   2    31   1     0     2     2  7.42e+03   222.       7.160     
   2    32   1     0     2     2  7.43e+03   229.       7.160     
   2    33   1     0     2     2  7.44e+03   236.       7.160     
   2    34   1     0     2     2  7.44e+03   243.       7.160     
   2    35   1     0     2     2  7.45e+03   251.       7.160     
   2    36   1     0     2     2  7.46e+03   258.       7.160     
   2    37   1     0     2     2  7.46e+03   265.       7.160     
   2    38   1     0     2     2  7.47e+03   272.       7.160     
   2    39   1     0     2     2  7.48e+03   279.       7.160     
   2    40   1     0     2     2  7.49e+03   286.       7.160     
   2    41   1     0     2     2  7.49e+03   294.       7.160     
   2    42   1     0     2     2  7.50e+03   301.       7.160     
   2    43   1     0     2     2  7.51e+03   308.       7.160     
   2    44   1     0     3     3  7.52e+03   315.       7.160     
   2    45   1     0     4     4  7.52e+03   322.       7.160     
   2    46   1     0     3     3  7.53e+03   329.       7.160     
   2    47   1     0     4     4  7.54e+03   337.       7.160     
   2    48   1     0     3     3  7.54e+03   344.       7.160     
   2    49   1     0     3     3  7.55e+03   351.       7.160     
   2    50   1     0     3     3  7.56e+03   358.       7.160     
   2    51   1     0     3     3  7.57e+03   365.       7.160     
   2    52   1     0     2     2  7.57e+03   372.       7.160     
   2    53   1     0     2     2  7.58e+03   379.       7.160     
   2    54   1     0     2     2  7.59e+03   387.       7.160     
   2    55   1     0     2     2  7.59e+03   394.       7.160     
   2    56   1     0     3     3  7.60e+03   401.       7.160     
   2    57   1     0     2     2  7.61e+03   408.       7.160     
   2    58   1     0     3     3  7.62e+03   415.       7.160     
   2    59   1     0     4     4  7.62e+03   422.       7.160     
   2    60   1     0     3     3  7.63e+03   430.       7.160     
   2    61   1     0     3     3  7.64e+03   437.       7.160     
   2    62   1     0     1     1  7.64e+03   439.       2.240     
   2    63   1     0     1     1  7.64e+03   444.       4.920     
   2    64   1     0     2     2  7.65e+03   451.       7.160     
   2    65   1     0     2     2  7.66e+03   458.       7.160     
   2    66   1     0     2     2  7.67e+03   465.       7.160     
   2    67   1     0     1     1  7.67e+03   473.       7.160     
   2    68   1     0     2     2  7.68e+03   480.       7.160     
   2    69   1     0     1     1  7.69e+03   487.       7.160     
   2    70   1     0     1     1  7.69e+03   494.       7.160     
   2    71   1     0     2     2  7.70e+03   501.       7.160     
   2    72   1     0     2     2  7.71e+03   508.       7.160     
   2    73   1     0     1     1  7.72e+03   516.       7.160     
   2    74   1     0     1     1  7.72e+03   523.       7.160     
   2    75   1     0     1     1  7.73e+03   530.       7.160     
   2    76   1     0     1     1  7.74e+03   537.       7.160     
   2    77   1     0     1     1  7.74e+03   544.       7.160     
   2    78   1     0     1     1  7.75e+03   550.       5.840     
   2    79   1     0     1     1  7.75e+03   551.       1.320     
   2    80   1     0     1     1  7.75e+03   554.       2.680     
   2    81   1     0     1     1  7.76e+03   558.       4.480     
   2    82   1     0     2     2  7.77e+03   566.       7.160     
   2    83   1     0     2     2  7.77e+03   573.       7.160     
