*Heading
** Job name: Job-1 Model name: Model-1
** Generated by: Abaqus/CAE 2023.HF4
*Preprint, echo=NO, model=NO, history=NO, contact=NO
**
** PARTS
**
*Part, name=Part-1
*Node
      1,           0.,           0.
      2, 0.0500000007,           0.
      3,  0.100000001,           0.
      4,  0.150000006,           0.
      5,  0.200000003,           0.
      6,         0.25,           0.
      7,  0.300000012,           0.
      8,  0.349999994,           0.
      9,  0.400000006,           0.
     10,  0.449999988,           0.
     11,          0.5,           0.
     12,  0.550000012,           0.
     13,  0.600000024,           0.
     14,  0.649999976,           0.
     15,  0.699999988,           0.
     16,         0.75,           0.
     17,  0.800000012,           0.
     18,  0.850000024,           0.
     19,  0.899999976,           0.
     20,  0.949999988,           0.
** ... 1982 like lines cut
*Element, type=CPE4HT
   1,    1,    2, 1003, 1002
   2,    2,    3, 1004, 1003
   3,    3,    4, 1005, 1004
   4,    4,    5, 1006, 1005
   5,    5,    6, 1007, 1006
   6,    6,    7, 1008, 1007
   7,    7,    8, 1009, 1008
   8,    8,    9, 1010, 1009
   9,    9,   10, 1011, 1010
  10,   10,   11, 1012, 1011
  11,   11,   12, 1013, 1012
  12,   12,   13, 1014, 1013
  13,   13,   14, 1015, 1014
  14,   14,   15, 1016, 1015
  15,   15,   16, 1017, 1016
  16,   16,   17, 1018, 1017
  17,   17,   18, 1019, 1018
  18,   18,   19, 1020, 1019
  19,   19,   20, 1021, 1020
  20,   20,   21, 1022, 1021
** ... 980 like lines cut
*Nset, nset=Set-1, generate
    1,  2002,     1
*Elset, elset=Set-1, generate
    1,  1000,     1
*Nset, nset=nodes_along_bar, unsorted
    1,    2,    3,    4,    5,    6,    7,    8,    9,   10,   11,   12,   13,   14,   15,   16
   17,   18,   19,   20,   21,   22,   23,   24,   25,   26,   27,   28,   29,   30,   31,   32
   33,   34,   35,   36,   37,   38,   39,   40,   41,   42,   43,   44,   45,   46,   47,   48
   49,   50,   51,   52,   53,   54,   55,   56,   57,   58,   59,   60,   61,   62,   63,   64
   65,   66,   67,   68,   69,   70,   71,   72,   73,   74,   75,   76,   77,   78,   79,   80
   81,   82,   83,   84,   85,   86,   87,   88,   89,   90,   91,   92,   93,   94,   95,   96
   97,   98,   99,  100,  101,  102,  103,  104,  105,  106,  107,  108,  109,  110,  111,  112
  113,  114,  115,  116,  117,  118,  119,  120,  121,  122,  123,  124,  125,  126,  127,  128
  129,  130,  131,  132,  133,  134,  135,  136,  137,  138,  139,  140,  141,  142,  143,  144
  145,  146,  147,  148,  149,  150,  151,  152,  153,  154,  155,  156,  157,  158,  159,  160
  161,  162,  163,  164,  165,  166,  167,  168,  169,  170,  171,  172,  173,  174,  175,  176
  177,  178,  179,  180,  181,  182,  183,  184,  185,  186,  187,  188,  189,  190,  191,  192
  193,  194,  195,  196,  197,  198,  199,  200,  201,  202,  203,  204,  205,  206,  207,  208
  209,  210,  211,  212,  213,  214,  215,  216,  217,  218,  219,  220,  221,  222,  223,  224
  225,  226,  227,  228,  229,  230,  231,  232,  233,  234,  235,  236,  237,  238,  239,  240
  241,  242,  243,  244,  245,  246,  247,  248,  249,  250,  251,  252,  253,  254,  255,  256
  257,  258,  259,  260,  261,  262,  263,  264,  265,  266,  267,  268,  269,  270,  271,  272
  273,  274,  275,  276,  277,  278,  279,  280,  281,  282,  283,  284,  285,  286,  287,  288
  289,  290,  291,  292,  293,  294,  295,  296,  297,  298,  299,  300,  301,  302,  303,  304
  305,  306,  307,  308,  309,  310,  311,  312,  313,  314,  315,  316,  317,  318,  319,  320
** ... 43 like lines cut
** Section: Section-1
*Solid Section, elset=Set-1, material=Material-1
,
*End Part
**  
**
** ASSEMBLY
**
*Assembly, name=Assembly
**  
*Instance, name=Part-1-1, part=Part-1
*End Instance
**  
*Nset, nset=Set-1, instance=Part-1-1
    1, 1002
*Elset, elset=Set-1, instance=Part-1-1
 1,
*Nset, nset=Set-2, instance=Part-1-1
 1001, 2002
*Elset, elset=Set-2, instance=Part-1-1
 1000,
*Nset, nset=Set-3, instance=Part-1-1, generate
    1,  1001,     1
*Elset, elset=Set-3, instance=Part-1-1, generate
    1,  1000,     1
*Nset, nset=Set-4, instance=Part-1-1, generate
    1,  1001,     1
*Elset, elset=Set-4, instance=Part-1-1, generate
    1,  1000,     1
*Nset, nset=Set-5, instance=Part-1-1
    1, 1002
*Elset, elset=Set-5, instance=Part-1-1
 1,
*Nset, nset=Set-6, instance=Part-1-1
 1001, 2002
*Elset, elset=Set-6, instance=Part-1-1
 1000,
*Nset, nset=Set-7, instance=Part-1-1
 1001, 2002
*Elset, elset=Set-7, instance=Part-1-1
 1000,
*Nset, nset=Set-8, instance=Part-1-1
    1, 1002
*Elset, elset=Set-8, instance=Part-1-1
 1,
*Nset, nset=Set-9, instance=Part-1-1
 1001, 2002
*Elset, elset=Set-9, instance=Part-1-1
 1000,
*Elset, elset=_Surf-1_S2, internal, instance=Part-1-1
 1000,
*Surface, type=ELEMENT, name=Surf-1
_Surf-1_S2, S2
*Elset, elset=_Surf-2_S2, internal, instance=Part-1-1
 1000,
*Surface, type=ELEMENT, name=Surf-2
_Surf-2_S2, S2
*Elset, elset=_Surf-3_S2, internal, instance=Part-1-1
 1000,
*Surface, type=ELEMENT, name=Surf-3
_Surf-3_S2, S2
*End Assembly
*Amplitude, name=Ramp
             0.,              0.,              1.,              1.
** 
** MATERIALS
** 
*Material, name=Material-1
*Conductivity
 3.8e-05,
*Density
1.,
*Elastic
200000., 0.3
*Specific Heat
1.,
** ----------------------------------------------------------------
** 
** STEP: Step-1
** 
*Step, name=Step-1, nlgeom=YES, inc=2000
*Coupled Temperature-displacement, creep=none
10000., 2e+07, 
** 
** BOUNDARY CONDITIONS
** 
** Name: BC-1 Type: Displacement/Rotation
*Boundary
Set-3, 2, 2
** Name: BC-2 Type: Displacement/Rotation
*Boundary
Set-4, 1, 1
** Name: BC-3 Type: Temperature
*Boundary
Set-5, 11, 11
** Name: BC-4 Type: Temperature
*Boundary
Set-6, 11, 11, 100.
** 
** OUTPUT REQUESTS
** 
*Restart, write, frequency=0
** 
** FIELD OUTPUT: F-Output-1
** 
*Output, field
*Node Output
NT, 
** 
** HISTORY OUTPUT: H-Output-1
** 
*Output, history, variable=PRESELECT
*End Step
