 Abaqus/Standard 2023.HF4                  DATE 20-Jun-2024 TIME 18:24:43
 SUMMARY OF JOB INFORMATION:
 STEP  INC ATT SEVERE EQUIL TOTAL  TOTAL      STEP       INC OF       DOF    IF
               DISCON ITERS ITERS  TIME/    TIME/LPF    TIME/LPF    MONITOR RIKS
               ITERS               FREQ
   1     1   1     0     1     1  1.00e+04   1.00e+04   1.000e+04 
   1     2   1     0     1     1  2.00e+04   2.00e+04   1.000e+04 
   1     3   1     0     1     1  3.00e+04   3.00e+04   1.000e+04 
   1     4   1     0     1     1  4.00e+04   4.00e+04   1.000e+04 
   1     5   1     0     1     1  5.00e+04   5.00e+04   1.000e+04 
   1     6   1     0     1     1  6.00e+04   6.00e+04   1.000e+04 
   1     7   1     0     1     1  7.00e+04   7.00e+04   1.000e+04 
   1     8   1     0     1     1  8.00e+04   8.00e+04   1.000e+04 
   1     9   1     0     1     1  9.00e+04   9.00e+04   1.000e+04 
   1    10   1     0     1     1  1.00e+05   1.00e+05   1.000e+04 
   1    11   1     0     1     1  1.10e+05   1.10e+05   1.000e+04 
   1    12   1     0     1     1  1.20e+05   1.20e+05   1.000e+04 
   1    13   1     0     1     1  1.30e+05   1.30e+05   1.000e+04 
   1    14   1     0     1     1  1.40e+05   1.40e+05   1.000e+04 
   1    15   1     0     1     1  1.50e+05   1.50e+05   1.000e+04 
   1    16   1     0     1     1  1.60e+05   1.60e+05   1.000e+04 
   1    17   1     0     1     1  1.70e+05   1.70e+05   1.000e+04 
   1    18   1     0     1     1  1.80e+05   1.80e+05   1.000e+04 
   1    19   1     0     1     1  1.90e+05   1.90e+05   1.000e+04 
   1    20   1     0     1     1  2.00e+05   2.00e+05   1.000e+04 
   1    21   1     0     1     1  2.10e+05   2.10e+05   1.000e+04 
   1    22   1     0     1     1  2.20e+05   2.20e+05   1.000e+04 
   1    23   1     0     1     1  2.30e+05   2.30e+05   1.000e+04 
   1    24   1     0     1     1  2.40e+05   2.40e+05   1.000e+04 
   1    25   1     0     1     1  2.50e+05   2.50e+05   1.000e+04 
   1    26   1     0     1     1  2.60e+05   2.60e+05   1.000e+04 
   1    27   1     0     1     1  2.70e+05   2.70e+05   1.000e+04 
   1    28   1     0     1     1  2.80e+05   2.80e+05   1.000e+04 
   1    29   1     0     1     1  2.90e+05   2.90e+05   1.000e+04 
   1    30   1     0     1     1  3.00e+05   3.00e+05   1.000e+04 
   1    31   1     0     1     1  3.10e+05   3.10e+05   1.000e+04 
   1    32   1     0     1     1  3.20e+05   3.20e+05   1.000e+04 
   1    33   1     0     1     1  3.30e+05   3.30e+05   1.000e+04 
   1    34   1     0     1     1  3.40e+05   3.40e+05   1.000e+04 
   1    35   1     0     1     1  3.50e+05   3.50e+05   1.000e+04 
   1    36   1     0     1     1  3.60e+05   3.60e+05   1.000e+04 
   1    37   1     0     1     1  3.70e+05   3.70e+05   1.000e+04 
   1    38   1     0     1     1  3.80e+05   3.80e+05   1.000e+04 
   1    39   1     0     1     1  3.90e+05   3.90e+05   1.000e+04 
   1    40   1     0     1     1  4.00e+05   4.00e+05   1.000e+04 
   1    41   1     0     1     1  4.10e+05   4.10e+05   1.000e+04 
   1    42   1     0     1     1  4.20e+05   4.20e+05   1.000e+04 
   1    43   1     0     1     1  4.30e+05   4.30e+05   1.000e+04 
   1    44   1     0     1     1  4.40e+05   4.40e+05   1.000e+04 
   1    45   1     0     1     1  4.50e+05   4.50e+05   1.000e+04 
   1    46   1     0     1     1  4.60e+05   4.60e+05   1.000e+04 
   1    47   1     0     1     1  4.70e+05   4.70e+05   1.000e+04 
   1    48   1     0     1     1  4.80e+05   4.80e+05   1.000e+04 
   1    49   1     0     1     1  4.90e+05   4.90e+05   1.000e+04 
   1    50   1     0     1     1  5.00e+05   5.00e+05   1.000e+04 
   1    51   1     0     1     1  5.10e+05   5.10e+05   1.000e+04 
   1    52   1     0     1     1  5.20e+05   5.20e+05   1.000e+04 
   1    53   1     0     1     1  5.30e+05   5.30e+05   1.000e+04 
   1    54   1     0     1     1  5.40e+05   5.40e+05   1.000e+04 
   1    55   1     0     1     1  5.50e+05   5.50e+05   1.000e+04 
   1    56   1     0     1     1  5.60e+05   5.60e+05   1.000e+04 
   1    57   1     0     1     1  5.70e+05   5.70e+05   1.000e+04 
   1    58   1     0     1     1  5.80e+05   5.80e+05   1.000e+04 
   1    59   1     0     1     1  5.90e+05   5.90e+05   1.000e+04 
   1    60   1     0     1     1  6.00e+05   6.00e+05   1.000e+04 
   1    61   1     0     1     1  6.10e+05   6.10e+05   1.000e+04 
   1    62   1     0     1     1  6.20e+05   6.20e+05   1.000e+04 
   1    63   1     0     1     1  6.30e+05   6.30e+05   1.000e+04 
   1    64   1     0     1     1  6.40e+05   6.40e+05   1.000e+04 
   1    65   1     0     1     1  6.50e+05   6.50e+05   1.000e+04 
   1    66   1     0     1     1  6.60e+05   6.60e+05   1.000e+04 
   1    67   1     0     1     1  6.70e+05   6.70e+05   1.000e+04 
   1    68   1     0     1     1  6.80e+05   6.80e+05   1.000e+04 
   1    69   1     0     1     1  6.90e+05   6.90e+05   1.000e+04 
   1    70   1     0     1     1  7.00e+05   7.00e+05   1.000e+04 
   1    71   1     0     1     1  7.10e+05   7.10e+05   1.000e+04 
   1    72   1     0     1     1  7.20e+05   7.20e+05   1.000e+04 
   1    73   1     0     1     1  7.30e+05   7.30e+05   1.000e+04 
   1    74   1     0     1     1  7.40e+05   7.40e+05   1.000e+04 
   1    75   1     0     1     1  7.50e+05   7.50e+05   1.000e+04 
   1    76   1     0     1     1  7.60e+05   7.60e+05   1.000e+04 
   1    77   1     0     1     1  7.70e+05   7.70e+05   1.000e+04 
   1    78   1     0     1     1  7.80e+05   7.80e+05   1.000e+04 
   1    79   1     0     1     1  7.90e+05   7.90e+05   1.000e+04 
   1    80   1     0     1     1  8.00e+05   8.00e+05   1.000e+04 
   1    81   1     0     1     1  8.10e+05   8.10e+05   1.000e+04 
   1    82   1     0     1     1  8.20e+05   8.20e+05   1.000e+04 
   1    83   1     0     1     1  8.30e+05   8.30e+05   1.000e+04 
   1    84   1     0     1     1  8.40e+05   8.40e+05   1.000e+04 
   1    85   1     0     1     1  8.50e+05   8.50e+05   1.000e+04 
   1    86   1     0     1     1  8.60e+05   8.60e+05   1.000e+04 
   1    87   1     0     1     1  8.70e+05   8.70e+05   1.000e+04 
   1    88   1     0     1     1  8.80e+05   8.80e+05   1.000e+04 
   1    89   1     0     1     1  8.90e+05   8.90e+05   1.000e+04 
   1    90   1     0     1     1  9.00e+05   9.00e+05   1.000e+04 
   1    91   1     0     1     1  9.10e+05   9.10e+05   1.000e+04 
   1    92   1     0     1     1  9.20e+05   9.20e+05   1.000e+04 
   1    93   1     0     1     1  9.30e+05   9.30e+05   1.000e+04 
   1    94   1     0     1     1  9.40e+05   9.40e+05   1.000e+04 
   1    95   1     0     1     1  9.50e+05   9.50e+05   1.000e+04 
   1    96   1     0     1     1  9.60e+05   9.60e+05   1.000e+04 
   1    97   1     0     1     1  9.70e+05   9.70e+05   1.000e+04 
   1    98   1     0     1     1  9.80e+05   9.80e+05   1.000e+04 
   1    99   1     0     1     1  9.90e+05   9.90e+05   1.000e+04 
   1   100   1     0     1     1  1.00e+06   1.00e+06   1.000e+04 
   1   101   1     0     1     1  1.01e+06   1.01e+06   1.000e+04 
   1   102   1     0     1     1  1.02e+06   1.02e+06   1.000e+04 
   1   103   1     0     1     1  1.03e+06   1.03e+06   1.000e+04 
   1   104   1     0     1     1  1.04e+06   1.04e+06   1.000e+04 
   1   105   1     0     1     1  1.05e+06   1.05e+06   1.000e+04 
   1   106   1     0     1     1  1.06e+06   1.06e+06   1.000e+04 
   1   107   1     0     1     1  1.07e+06   1.07e+06   1.000e+04 
   1   108   1     0     1     1  1.08e+06   1.08e+06   1.000e+04 
   1   109   1     0     1     1  1.09e+06   1.09e+06   1.000e+04 
   1   110   1     0     1     1  1.10e+06   1.10e+06   1.000e+04 
   1   111   1     0     1     1  1.11e+06   1.11e+06   1.000e+04 
   1   112   1     0     1     1  1.12e+06   1.12e+06   1.000e+04 
   1   113   1     0     1     1  1.13e+06   1.13e+06   1.000e+04 
   1   114   1     0     1     1  1.14e+06   1.14e+06   1.000e+04 
   1   115   1     0     1     1  1.15e+06   1.15e+06   1.000e+04 
   1   116   1     0     1     1  1.16e+06   1.16e+06   1.000e+04 
   1   117   1     0     1     1  1.17e+06   1.17e+06   1.000e+04 
   1   118   1     0     1     1  1.18e+06   1.18e+06   1.000e+04 
   1   119   1     0     1     1  1.19e+06   1.19e+06   1.000e+04 
   1   120   1     0     1     1  1.20e+06   1.20e+06   1.000e+04 
   1   121   1     0     1     1  1.21e+06   1.21e+06   1.000e+04 
   1   122   1     0     1     1  1.22e+06   1.22e+06   1.000e+04 
   1   123   1     0     1     1  1.23e+06   1.23e+06   1.000e+04 
   1   124   1     0     1     1  1.24e+06   1.24e+06   1.000e+04 
   1   125   1     0     1     1  1.25e+06   1.25e+06   1.000e+04 
   1   126   1     0     1     1  1.26e+06   1.26e+06   1.000e+04 
   1   127   1     0     1     1  1.27e+06   1.27e+06   1.000e+04 
   1   128   1     0     1     1  1.28e+06   1.28e+06   1.000e+04 
   1   129   1     0     1     1  1.29e+06   1.29e+06   1.000e+04 
   1   130   1     0     1     1  1.30e+06   1.30e+06   1.000e+04 
   1   131   1     0     1     1  1.31e+06   1.31e+06   1.000e+04 
   1   132   1     0     1     1  1.32e+06   1.32e+06   1.000e+04 
   1   133   1     0     1     1  1.33e+06   1.33e+06   1.000e+04 
   1   134   1     0     1     1  1.34e+06   1.34e+06   1.000e+04 
   1   135   1     0     1     1  1.35e+06   1.35e+06   1.000e+04 
   1   136   1     0     1     1  1.36e+06   1.36e+06   1.000e+04 
   1   137   1     0     1     1  1.37e+06   1.37e+06   1.000e+04 
   1   138   1     0     1     1  1.38e+06   1.38e+06   1.000e+04 
   1   139   1     0     1     1  1.39e+06   1.39e+06   1.000e+04 
   1   140   1     0     1     1  1.40e+06   1.40e+06   1.000e+04 
   1   141   1     0     1     1  1.41e+06   1.41e+06   1.000e+04 
   1   142   1     0     1     1  1.42e+06   1.42e+06   1.000e+04 
   1   143   1     0     1     1  1.43e+06   1.43e+06   1.000e+04 
   1   144   1     0     1     1  1.44e+06   1.44e+06   1.000e+04 
   1   145   1     0     1     1  1.45e+06   1.45e+06   1.000e+04 
   1   146   1     0     1     1  1.46e+06   1.46e+06   1.000e+04 
   1   147   1     0     1     1  1.47e+06   1.47e+06   1.000e+04 
   1   148   1     0     1     1  1.48e+06   1.48e+06   1.000e+04 
   1   149   1     0     1     1  1.49e+06   1.49e+06   1.000e+04 
   1   150   1     0     1     1  1.50e+06   1.50e+06   1.000e+04 
   1   151   1     0     1     1  1.51e+06   1.51e+06   1.000e+04 
   1   152   1     0     1     1  1.52e+06   1.52e+06   1.000e+04 
   1   153   1     0     1     1  1.53e+06   1.53e+06   1.000e+04 
   1   154   1     0     1     1  1.54e+06   1.54e+06   1.000e+04 
   1   155   1     0     1     1  1.55e+06   1.55e+06   1.000e+04 
   1   156   1     0     1     1  1.56e+06   1.56e+06   1.000e+04 
   1   157   1     0     1     1  1.57e+06   1.57e+06   1.000e+04 
   1   158   1     0     1     1  1.58e+06   1.58e+06   1.000e+04 
   1   159   1     0     1     1  1.59e+06   1.59e+06   1.000e+04 
   1   160   1     0     1     1  1.60e+06   1.60e+06   1.000e+04 
   1   161   1     0     1     1  1.61e+06   1.61e+06   1.000e+04 
   1   162   1     0     1     1  1.62e+06   1.62e+06   1.000e+04 
   1   163   1     0     1     1  1.63e+06   1.63e+06   1.000e+04 
   1   164   1     0     1     1  1.64e+06   1.64e+06   1.000e+04 
   1   165   1     0     1     1  1.65e+06   1.65e+06   1.000e+04 
   1   166   1     0     1     1  1.66e+06   1.66e+06   1.000e+04 
   1   167   1     0     1     1  1.67e+06   1.67e+06   1.000e+04 
   1   168   1     0     1     1  1.68e+06   1.68e+06   1.000e+04 
   1   169   1     0     1     1  1.69e+06   1.69e+06   1.000e+04 
   1   170   1     0     1     1  1.70e+06   1.70e+06   1.000e+04 
   1   171   1     0     1     1  1.71e+06   1.71e+06   1.000e+04 
   1   172   1     0     1     1  1.72e+06   1.72e+06   1.000e+04 
   1   173   1     0     1     1  1.73e+06   1.73e+06   1.000e+04 
   1   174   1     0     1     1  1.74e+06   1.74e+06   1.000e+04 
   1   175   1     0     1     1  1.75e+06   1.75e+06   1.000e+04 
   1   176   1     0     1     1  1.76e+06   1.76e+06   1.000e+04 
   1   177   1     0     1     1  1.77e+06   1.77e+06   1.000e+04 
   1   178   1     0     1     1  1.78e+06   1.78e+06   1.000e+04 
   1   179   1     0     1     1  1.79e+06   1.79e+06   1.000e+04 
   1   180   1     0     1     1  1.80e+06   1.80e+06   1.000e+04 
   1   181   1     0     1     1  1.81e+06   1.81e+06   1.000e+04 
   1   182   1     0     1     1  1.82e+06   1.82e+06   1.000e+04 
   1   183   1     0     1     1  1.83e+06   1.83e+06   1.000e+04 
   1   184   1     0     1     1  1.84e+06   1.84e+06   1.000e+04 
   1   185   1     0     1     1  1.85e+06   1.85e+06   1.000e+04 
   1   186   1     0     1     1  1.86e+06   1.86e+06   1.000e+04 
   1   187   1     0     1     1  1.87e+06   1.87e+06   1.000e+04 
   1   188   1     0     1     1  1.88e+06   1.88e+06   1.000e+04 
   1   189   1     0     1     1  1.89e+06   1.89e+06   1.000e+04 
   1   190   1     0     1     1  1.90e+06   1.90e+06   1.000e+04 
   1   191   1     0     1     1  1.91e+06   1.91e+06   1.000e+04 
   1   192   1     0     1     1  1.92e+06   1.92e+06   1.000e+04 
   1   193   1     0     1     1  1.93e+06   1.93e+06   1.000e+04 
   1   194   1     0     1     1  1.94e+06   1.94e+06   1.000e+04 
   1   195   1     0     1     1  1.95e+06   1.95e+06   1.000e+04 
   1   196   1     0     1     1  1.96e+06   1.96e+06   1.000e+04 
   1   197   1     0     1     1  1.97e+06   1.97e+06   1.000e+04 
   1   198   1     0     1     1  1.98e+06   1.98e+06   1.000e+04 
   1   199   1     0     1     1  1.99e+06   1.99e+06   1.000e+04 
   1   200   1     0     1     1  2.00e+06   2.00e+06   1.000e+04 
   1   201   1     0     1     1  2.01e+06   2.01e+06   1.000e+04 
   1   202   1     0     1     1  2.02e+06   2.02e+06   1.000e+04 
   1   203   1     0     1     1  2.03e+06   2.03e+06   1.000e+04 
   1   204   1     0     1     1  2.04e+06   2.04e+06   1.000e+04 
   1   205   1     0     1     1  2.05e+06   2.05e+06   1.000e+04 
   1   206   1     0     1     1  2.06e+06   2.06e+06   1.000e+04 
   1   207   1     0     1     1  2.07e+06   2.07e+06   1.000e+04 
   1   208   1     0     1     1  2.08e+06   2.08e+06   1.000e+04 
   1   209   1     0     1     1  2.09e+06   2.09e+06   1.000e+04 
   1   210   1     0     1     1  2.10e+06   2.10e+06   1.000e+04 
   1   211   1     0     1     1  2.11e+06   2.11e+06   1.000e+04 
   1   212   1     0     1     1  2.12e+06   2.12e+06   1.000e+04 
   1   213   1     0     1     1  2.13e+06   2.13e+06   1.000e+04 
   1   214   1     0     1     1  2.14e+06   2.14e+06   1.000e+04 
   1   215   1     0     1     1  2.15e+06   2.15e+06   1.000e+04 
   1   216   1     0     1     1  2.16e+06   2.16e+06   1.000e+04 
   1   217   1     0     1     1  2.17e+06   2.17e+06   1.000e+04 
   1   218   1     0     1     1  2.18e+06   2.18e+06   1.000e+04 
   1   219   1     0     1     1  2.19e+06   2.19e+06   1.000e+04 
   1   220   1     0     1     1  2.20e+06   2.20e+06   1.000e+04 
   1   221   1     0     1     1  2.21e+06   2.21e+06   1.000e+04 
   1   222   1     0     1     1  2.22e+06   2.22e+06   1.000e+04 
   1   223   1     0     1     1  2.23e+06   2.23e+06   1.000e+04 
   1   224   1     0     1     1  2.24e+06   2.24e+06   1.000e+04 
   1   225   1     0     1     1  2.25e+06   2.25e+06   1.000e+04 
   1   226   1     0     1     1  2.26e+06   2.26e+06   1.000e+04 
   1   227   1     0     1     1  2.27e+06   2.27e+06   1.000e+04 
   1   228   1     0     1     1  2.28e+06   2.28e+06   1.000e+04 
   1   229   1     0     1     1  2.29e+06   2.29e+06   1.000e+04 
   1   230   1     0     1     1  2.30e+06   2.30e+06   1.000e+04 
   1   231   1     0     1     1  2.31e+06   2.31e+06   1.000e+04 
   1   232   1     0     1     1  2.32e+06   2.32e+06   1.000e+04 
   1   233   1     0     1     1  2.33e+06   2.33e+06   1.000e+04 
   1   234   1     0     1     1  2.34e+06   2.34e+06   1.000e+04 
   1   235   1     0     1     1  2.35e+06   2.35e+06   1.000e+04 
   1   236   1     0     1     1  2.36e+06   2.36e+06   1.000e+04 
   1   237   1     0     1     1  2.37e+06   2.37e+06   1.000e+04 
   1   238   1     0     1     1  2.38e+06   2.38e+06   1.000e+04 
   1   239   1     0     1     1  2.39e+06   2.39e+06   1.000e+04 
   1   240   1     0     1     1  2.40e+06   2.40e+06   1.000e+04 
   1   241   1     0     1     1  2.41e+06   2.41e+06   1.000e+04 
   1   242   1     0     1     1  2.42e+06   2.42e+06   1.000e+04 
   1   243   1     0     1     1  2.43e+06   2.43e+06   1.000e+04 
   1   244   1     0     1     1  2.44e+06   2.44e+06   1.000e+04 
   1   245   1     0     1     1  2.45e+06   2.45e+06   1.000e+04 
   1   246   1     0     1     1  2.46e+06   2.46e+06   1.000e+04 
   1   247   1     0     1     1  2.47e+06   2.47e+06   1.000e+04 
   1   248   1     0     1     1  2.48e+06   2.48e+06   1.000e+04 
   1   249   1     0     1     1  2.49e+06   2.49e+06   1.000e+04 
   1   250   1     0     1     1  2.50e+06   2.50e+06   1.000e+04 
   1   251   1     0     1     1  2.51e+06   2.51e+06   1.000e+04 
   1   252   1     0     1     1  2.52e+06   2.52e+06   1.000e+04 
   1   253   1     0     1     1  2.53e+06   2.53e+06   1.000e+04 
   1   254   1     0     1     1  2.54e+06   2.54e+06   1.000e+04 
   1   255   1     0     1     1  2.55e+06   2.55e+06   1.000e+04 
   1   256   1     0     1     1  2.56e+06   2.56e+06   1.000e+04 
   1   257   1     0     1     1  2.57e+06   2.57e+06   1.000e+04 
   1   258   1     0     1     1  2.58e+06   2.58e+06   1.000e+04 
   1   259   1     0     1     1  2.59e+06   2.59e+06   1.000e+04 
   1   260   1     0     1     1  2.60e+06   2.60e+06   1.000e+04 
   1   261   1     0     1     1  2.61e+06   2.61e+06   1.000e+04 
   1   262   1     0     1     1  2.62e+06   2.62e+06   1.000e+04 
   1   263   1     0     1     1  2.63e+06   2.63e+06   1.000e+04 
   1   264   1     0     1     1  2.64e+06   2.64e+06   1.000e+04 
   1   265   1     0     1     1  2.65e+06   2.65e+06   1.000e+04 
   1   266   1     0     1     1  2.66e+06   2.66e+06   1.000e+04 
   1   267   1     0     1     1  2.67e+06   2.67e+06   1.000e+04 
   1   268   1     0     1     1  2.68e+06   2.68e+06   1.000e+04 
   1   269   1     0     1     1  2.69e+06   2.69e+06   1.000e+04 
   1   270   1     0     1     1  2.70e+06   2.70e+06   1.000e+04 
   1   271   1     0     1     1  2.71e+06   2.71e+06   1.000e+04 
   1   272   1     0     1     1  2.72e+06   2.72e+06   1.000e+04 
   1   273   1     0     1     1  2.73e+06   2.73e+06   1.000e+04 
   1   274   1     0     1     1  2.74e+06   2.74e+06   1.000e+04 
   1   275   1     0     1     1  2.75e+06   2.75e+06   1.000e+04 
   1   276   1     0     1     1  2.76e+06   2.76e+06   1.000e+04 
   1   277   1     0     1     1  2.77e+06   2.77e+06   1.000e+04 
   1   278   1     0     1     1  2.78e+06   2.78e+06   1.000e+04 
   1   279   1     0     1     1  2.79e+06   2.79e+06   1.000e+04 
   1   280   1     0     1     1  2.80e+06   2.80e+06   1.000e+04 
   1   281   1     0     1     1  2.81e+06   2.81e+06   1.000e+04 
   1   282   1     0     1     1  2.82e+06   2.82e+06   1.000e+04 
   1   283   1     0     1     1  2.83e+06   2.83e+06   1.000e+04 
   1   284   1     0     1     1  2.84e+06   2.84e+06   1.000e+04 
   1   285   1     0     1     1  2.85e+06   2.85e+06   1.000e+04 
   1   286   1     0     1     1  2.86e+06   2.86e+06   1.000e+04 
   1   287   1     0     1     1  2.87e+06   2.87e+06   1.000e+04 
   1   288   1     0     1     1  2.88e+06   2.88e+06   1.000e+04 
   1   289   1     0     1     1  2.89e+06   2.89e+06   1.000e+04 
   1   290   1     0     1     1  2.90e+06   2.90e+06   1.000e+04 
   1   291   1     0     1     1  2.91e+06   2.91e+06   1.000e+04 
   1   292   1     0     1     1  2.92e+06   2.92e+06   1.000e+04 
   1   293   1     0     1     1  2.93e+06   2.93e+06   1.000e+04 
   1   294   1     0     1     1  2.94e+06   2.94e+06   1.000e+04 
   1   295   1     0     1     1  2.95e+06   2.95e+06   1.000e+04 
   1   296   1     0     1     1  2.96e+06   2.96e+06   1.000e+04 
   1   297   1     0     1     1  2.97e+06   2.97e+06   1.000e+04 
   1   298   1     0     1     1  2.98e+06   2.98e+06   1.000e+04 
   1   299   1     0     1     1  2.99e+06   2.99e+06   1.000e+04 
   1   300   1     0     1     1  3.00e+06   3.00e+06   1.000e+04 
   1   301   1     0     1     1  3.01e+06   3.01e+06   1.000e+04 
   1   302   1     0     1     1  3.02e+06   3.02e+06   1.000e+04 
   1   303   1     0     1     1  3.03e+06   3.03e+06   1.000e+04 
   1   304   1     0     1     1  3.04e+06   3.04e+06   1.000e+04 
   1   305   1     0     1     1  3.05e+06   3.05e+06   1.000e+04 
   1   306   1     0     1     1  3.06e+06   3.06e+06   1.000e+04 
   1   307   1     0     1     1  3.07e+06   3.07e+06   1.000e+04 
   1   308   1     0     1     1  3.08e+06   3.08e+06   1.000e+04 
   1   309   1     0     1     1  3.09e+06   3.09e+06   1.000e+04 
   1   310   1     0     1     1  3.10e+06   3.10e+06   1.000e+04 
   1   311   1     0     1     1  3.11e+06   3.11e+06   1.000e+04 
   1   312   1     0     1     1  3.12e+06   3.12e+06   1.000e+04 
   1   313   1     0     1     1  3.13e+06   3.13e+06   1.000e+04 
   1   314   1     0     1     1  3.14e+06   3.14e+06   1.000e+04 
   1   315   1     0     1     1  3.15e+06   3.15e+06   1.000e+04 
   1   316   1     0     1     1  3.16e+06   3.16e+06   1.000e+04 
   1   317   1     0     1     1  3.17e+06   3.17e+06   1.000e+04 
   1   318   1     0     1     1  3.18e+06   3.18e+06   1.000e+04 
   1   319   1     0     1     1  3.19e+06   3.19e+06   1.000e+04 
   1   320   1     0     1     1  3.20e+06   3.20e+06   1.000e+04 
   1   321   1     0     1     1  3.21e+06   3.21e+06   1.000e+04 
   1   322   1     0     1     1  3.22e+06   3.22e+06   1.000e+04 
   1   323   1     0     1     1  3.23e+06   3.23e+06   1.000e+04 
   1   324   1     0     1     1  3.24e+06   3.24e+06   1.000e+04 
   1   325   1     0     1     1  3.25e+06   3.25e+06   1.000e+04 
   1   326   1     0     1     1  3.26e+06   3.26e+06   1.000e+04 
   1   327   1     0     1     1  3.27e+06   3.27e+06   1.000e+04 
   1   328   1     0     1     1  3.28e+06   3.28e+06   1.000e+04 
   1   329   1     0     1     1  3.29e+06   3.29e+06   1.000e+04 
   1   330   1     0     1     1  3.30e+06   3.30e+06   1.000e+04 
   1   331   1     0     1     1  3.31e+06   3.31e+06   1.000e+04 
   1   332   1     0     1     1  3.32e+06   3.32e+06   1.000e+04 
   1   333   1     0     1     1  3.33e+06   3.33e+06   1.000e+04 
   1   334   1     0     1     1  3.34e+06   3.34e+06   1.000e+04 
   1   335   1     0     1     1  3.35e+06   3.35e+06   1.000e+04 
   1   336   1     0     1     1  3.36e+06   3.36e+06   1.000e+04 
   1   337   1     0     1     1  3.37e+06   3.37e+06   1.000e+04 
   1   338   1     0     1     1  3.38e+06   3.38e+06   1.000e+04 
   1   339   1     0     1     1  3.39e+06   3.39e+06   1.000e+04 
   1   340   1     0     1     1  3.40e+06   3.40e+06   1.000e+04 
   1   341   1     0     1     1  3.41e+06   3.41e+06   1.000e+04 
   1   342   1     0     1     1  3.42e+06   3.42e+06   1.000e+04 
   1   343   1     0     1     1  3.43e+06   3.43e+06   1.000e+04 
   1   344   1     0     1     1  3.44e+06   3.44e+06   1.000e+04 
   1   345   1     0     1     1  3.45e+06   3.45e+06   1.000e+04 
   1   346   1     0     1     1  3.46e+06   3.46e+06   1.000e+04 
   1   347   1     0     1     1  3.47e+06   3.47e+06   1.000e+04 
   1   348   1     0     1     1  3.48e+06   3.48e+06   1.000e+04 
   1   349   1     0     1     1  3.49e+06   3.49e+06   1.000e+04 
   1   350   1     0     1     1  3.50e+06   3.50e+06   1.000e+04 
   1   351   1     0     1     1  3.51e+06   3.51e+06   1.000e+04 
   1   352   1     0     1     1  3.52e+06   3.52e+06   1.000e+04 
   1   353   1     0     1     1  3.53e+06   3.53e+06   1.000e+04 
   1   354   1     0     1     1  3.54e+06   3.54e+06   1.000e+04 
   1   355   1     0     1     1  3.55e+06   3.55e+06   1.000e+04 
   1   356   1     0     1     1  3.56e+06   3.56e+06   1.000e+04 
   1   357   1     0     1     1  3.57e+06   3.57e+06   1.000e+04 
   1   358   1     0     1     1  3.58e+06   3.58e+06   1.000e+04 
   1   359   1     0     1     1  3.59e+06   3.59e+06   1.000e+04 
   1   360   1     0     1     1  3.60e+06   3.60e+06   1.000e+04 
   1   361   1     0     1     1  3.61e+06   3.61e+06   1.000e+04 
   1   362   1     0     1     1  3.62e+06   3.62e+06   1.000e+04 
   1   363   1     0     1     1  3.63e+06   3.63e+06   1.000e+04 
   1   364   1     0     1     1  3.64e+06   3.64e+06   1.000e+04 
   1   365   1     0     1     1  3.65e+06   3.65e+06   1.000e+04 
   1   366   1     0     1     1  3.66e+06   3.66e+06   1.000e+04 
   1   367   1     0     1     1  3.67e+06   3.67e+06   1.000e+04 
   1   368   1     0     1     1  3.68e+06   3.68e+06   1.000e+04 
   1   369   1     0     1     1  3.69e+06   3.69e+06   1.000e+04 
   1   370   1     0     1     1  3.70e+06   3.70e+06   1.000e+04 
   1   371   1     0     1     1  3.71e+06   3.71e+06   1.000e+04 
   1   372   1     0     1     1  3.72e+06   3.72e+06   1.000e+04 
   1   373   1     0     1     1  3.73e+06   3.73e+06   1.000e+04 
   1   374   1     0     1     1  3.74e+06   3.74e+06   1.000e+04 
   1   375   1     0     1     1  3.75e+06   3.75e+06   1.000e+04 
   1   376   1     0     1     1  3.76e+06   3.76e+06   1.000e+04 
   1   377   1     0     1     1  3.77e+06   3.77e+06   1.000e+04 
   1   378   1     0     1     1  3.78e+06   3.78e+06   1.000e+04 
   1   379   1     0     1     1  3.79e+06   3.79e+06   1.000e+04 
   1   380   1     0     1     1  3.80e+06   3.80e+06   1.000e+04 
   1   381   1     0     1     1  3.81e+06   3.81e+06   1.000e+04 
   1   382   1     0     1     1  3.82e+06   3.82e+06   1.000e+04 
   1   383   1     0     1     1  3.83e+06   3.83e+06   1.000e+04 
   1   384   1     0     1     1  3.84e+06   3.84e+06   1.000e+04 
   1   385   1     0     1     1  3.85e+06   3.85e+06   1.000e+04 
   1   386   1     0     1     1  3.86e+06   3.86e+06   1.000e+04 
   1   387   1     0     1     1  3.87e+06   3.87e+06   1.000e+04 
   1   388   1     0     1     1  3.88e+06   3.88e+06   1.000e+04 
   1   389   1     0     1     1  3.89e+06   3.89e+06   1.000e+04 
   1   390   1     0     1     1  3.90e+06   3.90e+06   1.000e+04 
   1   391   1     0     1     1  3.91e+06   3.91e+06   1.000e+04 
   1   392   1     0     1     1  3.92e+06   3.92e+06   1.000e+04 
   1   393   1     0     1     1  3.93e+06   3.93e+06   1.000e+04 
   1   394   1     0     1     1  3.94e+06   3.94e+06   1.000e+04 
   1   395   1     0     1     1  3.95e+06   3.95e+06   1.000e+04 
   1   396   1     0     1     1  3.96e+06   3.96e+06   1.000e+04 
   1   397   1     0     1     1  3.97e+06   3.97e+06   1.000e+04 
   1   398   1     0     1     1  3.98e+06   3.98e+06   1.000e+04 
   1   399   1     0     1     1  3.99e+06   3.99e+06   1.000e+04 
   1   400   1     0     1     1  4.00e+06   4.00e+06   1.000e+04 
   1   401   1     0     1     1  4.01e+06   4.01e+06   1.000e+04 
   1   402   1     0     1     1  4.02e+06   4.02e+06   1.000e+04 
   1   403   1     0     1     1  4.03e+06   4.03e+06   1.000e+04 
   1   404   1     0     1     1  4.04e+06   4.04e+06   1.000e+04 
   1   405   1     0     1     1  4.05e+06   4.05e+06   1.000e+04 
   1   406   1     0     1     1  4.06e+06   4.06e+06   1.000e+04 
   1   407   1     0     1     1  4.07e+06   4.07e+06   1.000e+04 
   1   408   1     0     1     1  4.08e+06   4.08e+06   1.000e+04 
   1   409   1     0     1     1  4.09e+06   4.09e+06   1.000e+04 
   1   410   1     0     1     1  4.10e+06   4.10e+06   1.000e+04 
   1   411   1     0     1     1  4.11e+06   4.11e+06   1.000e+04 
   1   412   1     0     1     1  4.12e+06   4.12e+06   1.000e+04 
   1   413   1     0     1     1  4.13e+06   4.13e+06   1.000e+04 
   1   414   1     0     1     1  4.14e+06   4.14e+06   1.000e+04 
   1   415   1     0     1     1  4.15e+06   4.15e+06   1.000e+04 
   1   416   1     0     1     1  4.16e+06   4.16e+06   1.000e+04 
   1   417   1     0     1     1  4.17e+06   4.17e+06   1.000e+04 
   1   418   1     0     1     1  4.18e+06   4.18e+06   1.000e+04 
   1   419   1     0     1     1  4.19e+06   4.19e+06   1.000e+04 
   1   420   1     0     1     1  4.20e+06   4.20e+06   1.000e+04 
   1   421   1     0     1     1  4.21e+06   4.21e+06   1.000e+04 
   1   422   1     0     1     1  4.22e+06   4.22e+06   1.000e+04 
   1   423   1     0     1     1  4.23e+06   4.23e+06   1.000e+04 
   1   424   1     0     1     1  4.24e+06   4.24e+06   1.000e+04 
   1   425   1     0     1     1  4.25e+06   4.25e+06   1.000e+04 
   1   426   1     0     1     1  4.26e+06   4.26e+06   1.000e+04 
   1   427   1     0     1     1  4.27e+06   4.27e+06   1.000e+04 
   1   428   1     0     1     1  4.28e+06   4.28e+06   1.000e+04 
   1   429   1     0     1     1  4.29e+06   4.29e+06   1.000e+04 
   1   430   1     0     1     1  4.30e+06   4.30e+06   1.000e+04 
   1   431   1     0     1     1  4.31e+06   4.31e+06   1.000e+04 
   1   432   1     0     1     1  4.32e+06   4.32e+06   1.000e+04 
   1   433   1     0     1     1  4.33e+06   4.33e+06   1.000e+04 
   1   434   1     0     1     1  4.34e+06   4.34e+06   1.000e+04 
   1   435   1     0     1     1  4.35e+06   4.35e+06   1.000e+04 
   1   436   1     0     1     1  4.36e+06   4.36e+06   1.000e+04 
   1   437   1     0     1     1  4.37e+06   4.37e+06   1.000e+04 
   1   438   1     0     1     1  4.38e+06   4.38e+06   1.000e+04 
   1   439   1     0     1     1  4.39e+06   4.39e+06   1.000e+04 
   1   440   1     0     1     1  4.40e+06   4.40e+06   1.000e+04 
   1   441   1     0     1     1  4.41e+06   4.41e+06   1.000e+04 
   1   442   1     0     1     1  4.42e+06   4.42e+06   1.000e+04 
   1   443   1     0     1     1  4.43e+06   4.43e+06   1.000e+04 
   1   444   1     0     1     1  4.44e+06   4.44e+06   1.000e+04 
   1   445   1     0     1     1  4.45e+06   4.45e+06   1.000e+04 
   1   446   1     0     1     1  4.46e+06   4.46e+06   1.000e+04 
   1   447   1     0     1     1  4.47e+06   4.47e+06   1.000e+04 
   1   448   1     0     1     1  4.48e+06   4.48e+06   1.000e+04 
   1   449   1     0     1     1  4.49e+06   4.49e+06   1.000e+04 
   1   450   1     0     1     1  4.50e+06   4.50e+06   1.000e+04 
   1   451   1     0     1     1  4.51e+06   4.51e+06   1.000e+04 
   1   452   1     0     1     1  4.52e+06   4.52e+06   1.000e+04 
   1   453   1     0     1     1  4.53e+06   4.53e+06   1.000e+04 
   1   454   1     0     1     1  4.54e+06   4.54e+06   1.000e+04 
   1   455   1     0     1     1  4.55e+06   4.55e+06   1.000e+04 
   1   456   1     0     1     1  4.56e+06   4.56e+06   1.000e+04 
   1   457   1     0     1     1  4.57e+06   4.57e+06   1.000e+04 
   1   458   1     0     1     1  4.58e+06   4.58e+06   1.000e+04 
   1   459   1     0     1     1  4.59e+06   4.59e+06   1.000e+04 
   1   460   1     0     1     1  4.60e+06   4.60e+06   1.000e+04 
   1   461   1     0     1     1  4.61e+06   4.61e+06   1.000e+04 
   1   462   1     0     1     1  4.62e+06   4.62e+06   1.000e+04 
   1   463   1     0     1     1  4.63e+06   4.63e+06   1.000e+04 
   1   464   1     0     1     1  4.64e+06   4.64e+06   1.000e+04 
   1   465   1     0     1     1  4.65e+06   4.65e+06   1.000e+04 
   1   466   1     0     1     1  4.66e+06   4.66e+06   1.000e+04 
   1   467   1     0     1     1  4.67e+06   4.67e+06   1.000e+04 
   1   468   1     0     1     1  4.68e+06   4.68e+06   1.000e+04 
   1   469   1     0     1     1  4.69e+06   4.69e+06   1.000e+04 
   1   470   1     0     1     1  4.70e+06   4.70e+06   1.000e+04 
   1   471   1     0     1     1  4.71e+06   4.71e+06   1.000e+04 
   1   472   1     0     1     1  4.72e+06   4.72e+06   1.000e+04 
   1   473   1     0     1     1  4.73e+06   4.73e+06   1.000e+04 
   1   474   1     0     1     1  4.74e+06   4.74e+06   1.000e+04 
   1   475   1     0     1     1  4.75e+06   4.75e+06   1.000e+04 
   1   476   1     0     1     1  4.76e+06   4.76e+06   1.000e+04 
   1   477   1     0     1     1  4.77e+06   4.77e+06   1.000e+04 
   1   478   1     0     1     1  4.78e+06   4.78e+06   1.000e+04 
   1   479   1     0     1     1  4.79e+06   4.79e+06   1.000e+04 
   1   480   1     0     1     1  4.80e+06   4.80e+06   1.000e+04 
   1   481   1     0     1     1  4.81e+06   4.81e+06   1.000e+04 
   1   482   1     0     1     1  4.82e+06   4.82e+06   1.000e+04 
   1   483   1     0     1     1  4.83e+06   4.83e+06   1.000e+04 
   1   484   1     0     1     1  4.84e+06   4.84e+06   1.000e+04 
   1   485   1     0     1     1  4.85e+06   4.85e+06   1.000e+04 
   1   486   1     0     1     1  4.86e+06   4.86e+06   1.000e+04 
   1   487   1     0     1     1  4.87e+06   4.87e+06   1.000e+04 
   1   488   1     0     1     1  4.88e+06   4.88e+06   1.000e+04 
   1   489   1     0     1     1  4.89e+06   4.89e+06   1.000e+04 
   1   490   1     0     1     1  4.90e+06   4.90e+06   1.000e+04 
   1   491   1     0     1     1  4.91e+06   4.91e+06   1.000e+04 
   1   492   1     0     1     1  4.92e+06   4.92e+06   1.000e+04 
   1   493   1     0     1     1  4.93e+06   4.93e+06   1.000e+04 
   1   494   1     0     1     1  4.94e+06   4.94e+06   1.000e+04 
   1   495   1     0     1     1  4.95e+06   4.95e+06   1.000e+04 
   1   496   1     0     1     1  4.96e+06   4.96e+06   1.000e+04 
   1   497   1     0     1     1  4.97e+06   4.97e+06   1.000e+04 
   1   498   1     0     1     1  4.98e+06   4.98e+06   1.000e+04 
   1   499   1     0     1     1  4.99e+06   4.99e+06   1.000e+04 
   1   500   1     0     1     1  5.00e+06   5.00e+06   1.000e+04 
   1   501   1     0     1     1  5.01e+06   5.01e+06   1.000e+04 
   1   502   1     0     1     1  5.02e+06   5.02e+06   1.000e+04 
   1   503   1     0     1     1  5.03e+06   5.03e+06   1.000e+04 
   1   504   1     0     1     1  5.04e+06   5.04e+06   1.000e+04 
   1   505   1     0     1     1  5.05e+06   5.05e+06   1.000e+04 
   1   506   1     0     1     1  5.06e+06   5.06e+06   1.000e+04 
   1   507   1     0     1     1  5.07e+06   5.07e+06   1.000e+04 
   1   508   1     0     1     1  5.08e+06   5.08e+06   1.000e+04 
   1   509   1     0     1     1  5.09e+06   5.09e+06   1.000e+04 
   1   510   1     0     1     1  5.10e+06   5.10e+06   1.000e+04 
   1   511   1     0     1     1  5.11e+06   5.11e+06   1.000e+04 
   1   512   1     0     1     1  5.12e+06   5.12e+06   1.000e+04 
   1   513   1     0     1     1  5.13e+06   5.13e+06   1.000e+04 
   1   514   1     0     1     1  5.14e+06   5.14e+06   1.000e+04 
   1   515   1     0     1     1  5.15e+06   5.15e+06   1.000e+04 
   1   516   1     0     1     1  5.16e+06   5.16e+06   1.000e+04 
   1   517   1     0     1     1  5.17e+06   5.17e+06   1.000e+04 
   1   518   1     0     1     1  5.18e+06   5.18e+06   1.000e+04 
   1   519   1     0     1     1  5.19e+06   5.19e+06   1.000e+04 
   1   520   1     0     1     1  5.20e+06   5.20e+06   1.000e+04 
   1   521   1     0     1     1  5.21e+06   5.21e+06   1.000e+04 
   1   522   1     0     1     1  5.22e+06   5.22e+06   1.000e+04 
   1   523   1     0     1     1  5.23e+06   5.23e+06   1.000e+04 
   1   524   1     0     1     1  5.24e+06   5.24e+06   1.000e+04 
   1   525   1     0     1     1  5.25e+06   5.25e+06   1.000e+04 
   1   526   1     0     1     1  5.26e+06   5.26e+06   1.000e+04 
   1   527   1     0     1     1  5.27e+06   5.27e+06   1.000e+04 
   1   528   1     0     1     1  5.28e+06   5.28e+06   1.000e+04 
   1   529   1     0     1     1  5.29e+06   5.29e+06   1.000e+04 
   1   530   1     0     1     1  5.30e+06   5.30e+06   1.000e+04 
   1   531   1     0     1     1  5.31e+06   5.31e+06   1.000e+04 
   1   532   1     0     1     1  5.32e+06   5.32e+06   1.000e+04 
   1   533   1     0     1     1  5.33e+06   5.33e+06   1.000e+04 
   1   534   1     0     1     1  5.34e+06   5.34e+06   1.000e+04 
   1   535   1     0     1     1  5.35e+06   5.35e+06   1.000e+04 
   1   536   1     0     1     1  5.36e+06   5.36e+06   1.000e+04 
   1   537   1     0     1     1  5.37e+06   5.37e+06   1.000e+04 
   1   538   1     0     1     1  5.38e+06   5.38e+06   1.000e+04 
   1   539   1     0     1     1  5.39e+06   5.39e+06   1.000e+04 
   1   540   1     0     1     1  5.40e+06   5.40e+06   1.000e+04 
   1   541   1     0     1     1  5.41e+06   5.41e+06   1.000e+04 
   1   542   1     0     1     1  5.42e+06   5.42e+06   1.000e+04 
   1   543   1     0     1     1  5.43e+06   5.43e+06   1.000e+04 
   1   544   1     0     1     1  5.44e+06   5.44e+06   1.000e+04 
   1   545   1     0     1     1  5.45e+06   5.45e+06   1.000e+04 
   1   546   1     0     1     1  5.46e+06   5.46e+06   1.000e+04 
   1   547   1     0     1     1  5.47e+06   5.47e+06   1.000e+04 
   1   548   1     0     1     1  5.48e+06   5.48e+06   1.000e+04 
   1   549   1     0     1     1  5.49e+06   5.49e+06   1.000e+04 
   1   550   1     0     1     1  5.50e+06   5.50e+06   1.000e+04 
   1   551   1     0     1     1  5.51e+06   5.51e+06   1.000e+04 
   1   552   1     0     1     1  5.52e+06   5.52e+06   1.000e+04 
   1   553   1     0     1     1  5.53e+06   5.53e+06   1.000e+04 
   1   554   1     0     1     1  5.54e+06   5.54e+06   1.000e+04 
   1   555   1     0     1     1  5.55e+06   5.55e+06   1.000e+04 
   1   556   1     0     1     1  5.56e+06   5.56e+06   1.000e+04 
   1   557   1     0     1     1  5.57e+06   5.57e+06   1.000e+04 
   1   558   1     0     1     1  5.58e+06   5.58e+06   1.000e+04 
   1   559   1     0     1     1  5.59e+06   5.59e+06   1.000e+04 
   1   560   1     0     1     1  5.60e+06   5.60e+06   1.000e+04 
   1   561   1     0     1     1  5.61e+06   5.61e+06   1.000e+04 
   1   562   1     0     1     1  5.62e+06   5.62e+06   1.000e+04 
   1   563   1     0     1     1  5.63e+06   5.63e+06   1.000e+04 
   1   564   1     0     1     1  5.64e+06   5.64e+06   1.000e+04 
   1   565   1     0     1     1  5.65e+06   5.65e+06   1.000e+04 
   1   566   1     0     1     1  5.66e+06   5.66e+06   1.000e+04 
   1   567   1     0     1     1  5.67e+06   5.67e+06   1.000e+04 
   1   568   1     0     1     1  5.68e+06   5.68e+06   1.000e+04 
   1   569   1     0     1     1  5.69e+06   5.69e+06   1.000e+04 
   1   570   1     0     1     1  5.70e+06   5.70e+06   1.000e+04 
   1   571   1     0     1     1  5.71e+06   5.71e+06   1.000e+04 
   1   572   1     0     1     1  5.72e+06   5.72e+06   1.000e+04 
   1   573   1     0     1     1  5.73e+06   5.73e+06   1.000e+04 
   1   574   1     0     1     1  5.74e+06   5.74e+06   1.000e+04 
   1   575   1     0     1     1  5.75e+06   5.75e+06   1.000e+04 
   1   576   1     0     1     1  5.76e+06   5.76e+06   1.000e+04 
   1   577   1     0     1     1  5.77e+06   5.77e+06   1.000e+04 
   1   578   1     0     1     1  5.78e+06   5.78e+06   1.000e+04 
   1   579   1     0     1     1  5.79e+06   5.79e+06   1.000e+04 
   1   580   1     0     1     1  5.80e+06   5.80e+06   1.000e+04 
   1   581   1     0     1     1  5.81e+06   5.81e+06   1.000e+04 
   1   582   1     0     1     1  5.82e+06   5.82e+06   1.000e+04 
   1   583   1     0     1     1  5.83e+06   5.83e+06   1.000e+04 
   1   584   1     0     1     1  5.84e+06   5.84e+06   1.000e+04 
   1   585   1     0     1     1  5.85e+06   5.85e+06   1.000e+04 
   1   586   1     0     1     1  5.86e+06   5.86e+06   1.000e+04 
   1   587   1     0     1     1  5.87e+06   5.87e+06   1.000e+04 
   1   588   1     0     1     1  5.88e+06   5.88e+06   1.000e+04 
   1   589   1     0     1     1  5.89e+06   5.89e+06   1.000e+04 
   1   590   1     0     1     1  5.90e+06   5.90e+06   1.000e+04 
   1   591   1     0     1     1  5.91e+06   5.91e+06   1.000e+04 
   1   592   1     0     1     1  5.92e+06   5.92e+06   1.000e+04 
   1   593   1     0     1     1  5.93e+06   5.93e+06   1.000e+04 
   1   594   1     0     1     1  5.94e+06   5.94e+06   1.000e+04 
   1   595   1     0     1     1  5.95e+06   5.95e+06   1.000e+04 
   1   596   1     0     1     1  5.96e+06   5.96e+06   1.000e+04 
   1   597   1     0     1     1  5.97e+06   5.97e+06   1.000e+04 
   1   598   1     0     1     1  5.98e+06   5.98e+06   1.000e+04 
   1   599   1     0     1     1  5.99e+06   5.99e+06   1.000e+04 
   1   600   1     0     1     1  6.00e+06   6.00e+06   1.000e+04 
   1   601   1     0     1     1  6.01e+06   6.01e+06   1.000e+04 
   1   602   1     0     1     1  6.02e+06   6.02e+06   1.000e+04 
   1   603   1     0     1     1  6.03e+06   6.03e+06   1.000e+04 
   1   604   1     0     1     1  6.04e+06   6.04e+06   1.000e+04 
   1   605   1     0     1     1  6.05e+06   6.05e+06   1.000e+04 
   1   606   1     0     1     1  6.06e+06   6.06e+06   1.000e+04 
   1   607   1     0     1     1  6.07e+06   6.07e+06   1.000e+04 
   1   608   1     0     1     1  6.08e+06   6.08e+06   1.000e+04 
   1   609   1     0     1     1  6.09e+06   6.09e+06   1.000e+04 
   1   610   1     0     1     1  6.10e+06   6.10e+06   1.000e+04 
   1   611   1     0     1     1  6.11e+06   6.11e+06   1.000e+04 
   1   612   1     0     1     1  6.12e+06   6.12e+06   1.000e+04 
   1   613   1     0     1     1  6.13e+06   6.13e+06   1.000e+04 
   1   614   1     0     1     1  6.14e+06   6.14e+06   1.000e+04 
   1   615   1     0     1     1  6.15e+06   6.15e+06   1.000e+04 
   1   616   1     0     1     1  6.16e+06   6.16e+06   1.000e+04 
   1   617   1     0     1     1  6.17e+06   6.17e+06   1.000e+04 
   1   618   1     0     1     1  6.18e+06   6.18e+06   1.000e+04 
   1   619   1     0     1     1  6.19e+06   6.19e+06   1.000e+04 
   1   620   1     0     1     1  6.20e+06   6.20e+06   1.000e+04 
   1   621   1     0     1     1  6.21e+06   6.21e+06   1.000e+04 
   1   622   1     0     1     1  6.22e+06   6.22e+06   1.000e+04 
   1   623   1     0     1     1  6.23e+06   6.23e+06   1.000e+04 
   1   624   1     0     1     1  6.24e+06   6.24e+06   1.000e+04 
   1   625   1     0     1     1  6.25e+06   6.25e+06   1.000e+04 
   1   626   1     0     1     1  6.26e+06   6.26e+06   1.000e+04 
   1   627   1     0     1     1  6.27e+06   6.27e+06   1.000e+04 
   1   628   1     0     1     1  6.28e+06   6.28e+06   1.000e+04 
   1   629   1     0     1     1  6.29e+06   6.29e+06   1.000e+04 
   1   630   1     0     1     1  6.30e+06   6.30e+06   1.000e+04 
   1   631   1     0     1     1  6.31e+06   6.31e+06   1.000e+04 
   1   632   1     0     1     1  6.32e+06   6.32e+06   1.000e+04 
   1   633   1     0     1     1  6.33e+06   6.33e+06   1.000e+04 
   1   634   1     0     1     1  6.34e+06   6.34e+06   1.000e+04 
   1   635   1     0     1     1  6.35e+06   6.35e+06   1.000e+04 
   1   636   1     0     1     1  6.36e+06   6.36e+06   1.000e+04 
   1   637   1     0     1     1  6.37e+06   6.37e+06   1.000e+04 
   1   638   1     0     1     1  6.38e+06   6.38e+06   1.000e+04 
   1   639   1     0     1     1  6.39e+06   6.39e+06   1.000e+04 
   1   640   1     0     1     1  6.40e+06   6.40e+06   1.000e+04 
   1   641   1     0     1     1  6.41e+06   6.41e+06   1.000e+04 
   1   642   1     0     1     1  6.42e+06   6.42e+06   1.000e+04 
   1   643   1     0     1     1  6.43e+06   6.43e+06   1.000e+04 
   1   644   1     0     1     1  6.44e+06   6.44e+06   1.000e+04 
   1   645   1     0     1     1  6.45e+06   6.45e+06   1.000e+04 
   1   646   1     0     1     1  6.46e+06   6.46e+06   1.000e+04 
   1   647   1     0     1     1  6.47e+06   6.47e+06   1.000e+04 
   1   648   1     0     1     1  6.48e+06   6.48e+06   1.000e+04 
   1   649   1     0     1     1  6.49e+06   6.49e+06   1.000e+04 
   1   650   1     0     1     1  6.50e+06   6.50e+06   1.000e+04 
   1   651   1     0     1     1  6.51e+06   6.51e+06   1.000e+04 
   1   652   1     0     1     1  6.52e+06   6.52e+06   1.000e+04 
   1   653   1     0     1     1  6.53e+06   6.53e+06   1.000e+04 
   1   654   1     0     1     1  6.54e+06   6.54e+06   1.000e+04 
   1   655   1     0     1     1  6.55e+06   6.55e+06   1.000e+04 
   1   656   1     0     1     1  6.56e+06   6.56e+06   1.000e+04 
   1   657   1     0     1     1  6.57e+06   6.57e+06   1.000e+04 
   1   658   1     0     1     1  6.58e+06   6.58e+06   1.000e+04 
   1   659   1     0     1     1  6.59e+06   6.59e+06   1.000e+04 
   1   660   1     0     1     1  6.60e+06   6.60e+06   1.000e+04 
   1   661   1     0     1     1  6.61e+06   6.61e+06   1.000e+04 
   1   662   1     0     1     1  6.62e+06   6.62e+06   1.000e+04 
   1   663   1     0     1     1  6.63e+06   6.63e+06   1.000e+04 
   1   664   1     0     1     1  6.64e+06   6.64e+06   1.000e+04 
   1   665   1     0     1     1  6.65e+06   6.65e+06   1.000e+04 
   1   666   1     0     1     1  6.66e+06   6.66e+06   1.000e+04 
   1   667   1     0     1     1  6.67e+06   6.67e+06   1.000e+04 
   1   668   1     0     1     1  6.68e+06   6.68e+06   1.000e+04 
   1   669   1     0     1     1  6.69e+06   6.69e+06   1.000e+04 
   1   670   1     0     1     1  6.70e+06   6.70e+06   1.000e+04 
   1   671   1     0     1     1  6.71e+06   6.71e+06   1.000e+04 
   1   672   1     0     1     1  6.72e+06   6.72e+06   1.000e+04 
   1   673   1     0     1     1  6.73e+06   6.73e+06   1.000e+04 
   1   674   1     0     1     1  6.74e+06   6.74e+06   1.000e+04 
   1   675   1     0     1     1  6.75e+06   6.75e+06   1.000e+04 
   1   676   1     0     1     1  6.76e+06   6.76e+06   1.000e+04 
   1   677   1     0     1     1  6.77e+06   6.77e+06   1.000e+04 
   1   678   1     0     1     1  6.78e+06   6.78e+06   1.000e+04 
   1   679   1     0     1     1  6.79e+06   6.79e+06   1.000e+04 
   1   680   1     0     1     1  6.80e+06   6.80e+06   1.000e+04 
   1   681   1     0     1     1  6.81e+06   6.81e+06   1.000e+04 
   1   682   1     0     1     1  6.82e+06   6.82e+06   1.000e+04 
   1   683   1     0     1     1  6.83e+06   6.83e+06   1.000e+04 
   1   684   1     0     1     1  6.84e+06   6.84e+06   1.000e+04 
   1   685   1     0     1     1  6.85e+06   6.85e+06   1.000e+04 
   1   686   1     0     1     1  6.86e+06   6.86e+06   1.000e+04 
   1   687   1     0     1     1  6.87e+06   6.87e+06   1.000e+04 
   1   688   1     0     1     1  6.88e+06   6.88e+06   1.000e+04 
   1   689   1     0     1     1  6.89e+06   6.89e+06   1.000e+04 
   1   690   1     0     1     1  6.90e+06   6.90e+06   1.000e+04 
   1   691   1     0     1     1  6.91e+06   6.91e+06   1.000e+04 
   1   692   1     0     1     1  6.92e+06   6.92e+06   1.000e+04 
   1   693   1     0     1     1  6.93e+06   6.93e+06   1.000e+04 
   1   694   1     0     1     1  6.94e+06   6.94e+06   1.000e+04 
   1   695   1     0     1     1  6.95e+06   6.95e+06   1.000e+04 
   1   696   1     0     1     1  6.96e+06   6.96e+06   1.000e+04 
   1   697   1     0     1     1  6.97e+06   6.97e+06   1.000e+04 
   1   698   1     0     1     1  6.98e+06   6.98e+06   1.000e+04 
   1   699   1     0     1     1  6.99e+06   6.99e+06   1.000e+04 
   1   700   1     0     1     1  7.00e+06   7.00e+06   1.000e+04 
   1   701   1     0     1     1  7.01e+06   7.01e+06   1.000e+04 
   1   702   1     0     1     1  7.02e+06   7.02e+06   1.000e+04 
   1   703   1     0     1     1  7.03e+06   7.03e+06   1.000e+04 
   1   704   1     0     1     1  7.04e+06   7.04e+06   1.000e+04 
   1   705   1     0     1     1  7.05e+06   7.05e+06   1.000e+04 
   1   706   1     0     1     1  7.06e+06   7.06e+06   1.000e+04 
   1   707   1     0     1     1  7.07e+06   7.07e+06   1.000e+04 
   1   708   1     0     1     1  7.08e+06   7.08e+06   1.000e+04 
   1   709   1     0     1     1  7.09e+06   7.09e+06   1.000e+04 
   1   710   1     0     1     1  7.10e+06   7.10e+06   1.000e+04 
   1   711   1     0     1     1  7.11e+06   7.11e+06   1.000e+04 
   1   712   1     0     1     1  7.12e+06   7.12e+06   1.000e+04 
   1   713   1     0     1     1  7.13e+06   7.13e+06   1.000e+04 
   1   714   1     0     1     1  7.14e+06   7.14e+06   1.000e+04 
   1   715   1     0     1     1  7.15e+06   7.15e+06   1.000e+04 
   1   716   1     0     1     1  7.16e+06   7.16e+06   1.000e+04 
   1   717   1     0     1     1  7.17e+06   7.17e+06   1.000e+04 
   1   718   1     0     1     1  7.18e+06   7.18e+06   1.000e+04 
   1   719   1     0     1     1  7.19e+06   7.19e+06   1.000e+04 
   1   720   1     0     1     1  7.20e+06   7.20e+06   1.000e+04 
   1   721   1     0     1     1  7.21e+06   7.21e+06   1.000e+04 
   1   722   1     0     1     1  7.22e+06   7.22e+06   1.000e+04 
   1   723   1     0     1     1  7.23e+06   7.23e+06   1.000e+04 
   1   724   1     0     1     1  7.24e+06   7.24e+06   1.000e+04 
   1   725   1     0     1     1  7.25e+06   7.25e+06   1.000e+04 
   1   726   1     0     1     1  7.26e+06   7.26e+06   1.000e+04 
   1   727   1     0     1     1  7.27e+06   7.27e+06   1.000e+04 
   1   728   1     0     1     1  7.28e+06   7.28e+06   1.000e+04 
   1   729   1     0     1     1  7.29e+06   7.29e+06   1.000e+04 
   1   730   1     0     1     1  7.30e+06   7.30e+06   1.000e+04 
   1   731   1     0     1     1  7.31e+06   7.31e+06   1.000e+04 
   1   732   1     0     1     1  7.32e+06   7.32e+06   1.000e+04 
   1   733   1     0     1     1  7.33e+06   7.33e+06   1.000e+04 
   1   734   1     0     1     1  7.34e+06   7.34e+06   1.000e+04 
   1   735   1     0     1     1  7.35e+06   7.35e+06   1.000e+04 
   1   736   1     0     1     1  7.36e+06   7.36e+06   1.000e+04 
   1   737   1     0     1     1  7.37e+06   7.37e+06   1.000e+04 
   1   738   1     0     1     1  7.38e+06   7.38e+06   1.000e+04 
   1   739   1     0     1     1  7.39e+06   7.39e+06   1.000e+04 
   1   740   1     0     1     1  7.40e+06   7.40e+06   1.000e+04 
   1   741   1     0     1     1  7.41e+06   7.41e+06   1.000e+04 
   1   742   1     0     1     1  7.42e+06   7.42e+06   1.000e+04 
   1   743   1     0     1     1  7.43e+06   7.43e+06   1.000e+04 
   1   744   1     0     1     1  7.44e+06   7.44e+06   1.000e+04 
   1   745   1     0     1     1  7.45e+06   7.45e+06   1.000e+04 
   1   746   1     0     1     1  7.46e+06   7.46e+06   1.000e+04 
   1   747   1     0     1     1  7.47e+06   7.47e+06   1.000e+04 
   1   748   1     0     1     1  7.48e+06   7.48e+06   1.000e+04 
   1   749   1     0     1     1  7.49e+06   7.49e+06   1.000e+04 
   1   750   1     0     1     1  7.50e+06   7.50e+06   1.000e+04 
   1   751   1     0     1     1  7.51e+06   7.51e+06   1.000e+04 
   1   752   1     0     1     1  7.52e+06   7.52e+06   1.000e+04 
   1   753   1     0     1     1  7.53e+06   7.53e+06   1.000e+04 
   1   754   1     0     1     1  7.54e+06   7.54e+06   1.000e+04 
   1   755   1     0     1     1  7.55e+06   7.55e+06   1.000e+04 
   1   756   1     0     1     1  7.56e+06   7.56e+06   1.000e+04 
   1   757   1     0     1     1  7.57e+06   7.57e+06   1.000e+04 
   1   758   1     0     1     1  7.58e+06   7.58e+06   1.000e+04 
   1   759   1     0     1     1  7.59e+06   7.59e+06   1.000e+04 
   1   760   1     0     1     1  7.60e+06   7.60e+06   1.000e+04 
   1   761   1     0     1     1  7.61e+06   7.61e+06   1.000e+04 
   1   762   1     0     1     1  7.62e+06   7.62e+06   1.000e+04 
   1   763   1     0     1     1  7.63e+06   7.63e+06   1.000e+04 
   1   764   1     0     1     1  7.64e+06   7.64e+06   1.000e+04 
   1   765   1     0     1     1  7.65e+06   7.65e+06   1.000e+04 
   1   766   1     0     1     1  7.66e+06   7.66e+06   1.000e+04 
   1   767   1     0     1     1  7.67e+06   7.67e+06   1.000e+04 
   1   768   1     0     1     1  7.68e+06   7.68e+06   1.000e+04 
   1   769   1     0     1     1  7.69e+06   7.69e+06   1.000e+04 
   1   770   1     0     1     1  7.70e+06   7.70e+06   1.000e+04 
   1   771   1     0     1     1  7.71e+06   7.71e+06   1.000e+04 
   1   772   1     0     1     1  7.72e+06   7.72e+06   1.000e+04 
   1   773   1     0     1     1  7.73e+06   7.73e+06   1.000e+04 
   1   774   1     0     1     1  7.74e+06   7.74e+06   1.000e+04 
   1   775   1     0     1     1  7.75e+06   7.75e+06   1.000e+04 
   1   776   1     0     1     1  7.76e+06   7.76e+06   1.000e+04 
   1   777   1     0     1     1  7.77e+06   7.77e+06   1.000e+04 
   1   778   1     0     1     1  7.78e+06   7.78e+06   1.000e+04 
   1   779   1     0     1     1  7.79e+06   7.79e+06   1.000e+04 
   1   780   1     0     1     1  7.80e+06   7.80e+06   1.000e+04 
   1   781   1     0     1     1  7.81e+06   7.81e+06   1.000e+04 
   1   782   1     0     1     1  7.82e+06   7.82e+06   1.000e+04 
   1   783   1     0     1     1  7.83e+06   7.83e+06   1.000e+04 
   1   784   1     0     1     1  7.84e+06   7.84e+06   1.000e+04 
   1   785   1     0     1     1  7.85e+06   7.85e+06   1.000e+04 
   1   786   1     0     1     1  7.86e+06   7.86e+06   1.000e+04 
   1   787   1     0     1     1  7.87e+06   7.87e+06   1.000e+04 
   1   788   1     0     1     1  7.88e+06   7.88e+06   1.000e+04 
   1   789   1     0     1     1  7.89e+06   7.89e+06   1.000e+04 
   1   790   1     0     1     1  7.90e+06   7.90e+06   1.000e+04 
   1   791   1     0     1     1  7.91e+06   7.91e+06   1.000e+04 
   1   792   1     0     1     1  7.92e+06   7.92e+06   1.000e+04 
   1   793   1     0     1     1  7.93e+06   7.93e+06   1.000e+04 
   1   794   1     0     1     1  7.94e+06   7.94e+06   1.000e+04 
   1   795   1     0     1     1  7.95e+06   7.95e+06   1.000e+04 
   1   796   1     0     1     1  7.96e+06   7.96e+06   1.000e+04 
   1   797   1     0     1     1  7.97e+06   7.97e+06   1.000e+04 
   1   798   1     0     1     1  7.98e+06   7.98e+06   1.000e+04 
   1   799   1     0     1     1  7.99e+06   7.99e+06   1.000e+04 
   1   800   1     0     1     1  8.00e+06   8.00e+06   1.000e+04 
   1   801   1     0     1     1  8.01e+06   8.01e+06   1.000e+04 
   1   802   1     0     1     1  8.02e+06   8.02e+06   1.000e+04 
   1   803   1     0     1     1  8.03e+06   8.03e+06   1.000e+04 
   1   804   1     0     1     1  8.04e+06   8.04e+06   1.000e+04 
   1   805   1     0     1     1  8.05e+06   8.05e+06   1.000e+04 
   1   806   1     0     1     1  8.06e+06   8.06e+06   1.000e+04 
   1   807   1     0     1     1  8.07e+06   8.07e+06   1.000e+04 
   1   808   1     0     1     1  8.08e+06   8.08e+06   1.000e+04 
   1   809   1     0     1     1  8.09e+06   8.09e+06   1.000e+04 
   1   810   1     0     1     1  8.10e+06   8.10e+06   1.000e+04 
   1   811   1     0     1     1  8.11e+06   8.11e+06   1.000e+04 
   1   812   1     0     1     1  8.12e+06   8.12e+06   1.000e+04 
   1   813   1     0     1     1  8.13e+06   8.13e+06   1.000e+04 
   1   814   1     0     1     1  8.14e+06   8.14e+06   1.000e+04 
   1   815   1     0     1     1  8.15e+06   8.15e+06   1.000e+04 
   1   816   1     0     1     1  8.16e+06   8.16e+06   1.000e+04 
   1   817   1     0     1     1  8.17e+06   8.17e+06   1.000e+04 
   1   818   1     0     1     1  8.18e+06   8.18e+06   1.000e+04 
   1   819   1     0     1     1  8.19e+06   8.19e+06   1.000e+04 
   1   820   1     0     1     1  8.20e+06   8.20e+06   1.000e+04 
   1   821   1     0     1     1  8.21e+06   8.21e+06   1.000e+04 
   1   822   1     0     1     1  8.22e+06   8.22e+06   1.000e+04 
   1   823   1     0     1     1  8.23e+06   8.23e+06   1.000e+04 
   1   824   1     0     1     1  8.24e+06   8.24e+06   1.000e+04 
   1   825   1     0     1     1  8.25e+06   8.25e+06   1.000e+04 
   1   826   1     0     1     1  8.26e+06   8.26e+06   1.000e+04 
   1   827   1     0     1     1  8.27e+06   8.27e+06   1.000e+04 
   1   828   1     0     1     1  8.28e+06   8.28e+06   1.000e+04 
   1   829   1     0     1     1  8.29e+06   8.29e+06   1.000e+04 
   1   830   1     0     1     1  8.30e+06   8.30e+06   1.000e+04 
   1   831   1     0     1     1  8.31e+06   8.31e+06   1.000e+04 
   1   832   1     0     1     1  8.32e+06   8.32e+06   1.000e+04 
   1   833   1     0     1     1  8.33e+06   8.33e+06   1.000e+04 
   1   834   1     0     1     1  8.34e+06   8.34e+06   1.000e+04 
   1   835   1     0     1     1  8.35e+06   8.35e+06   1.000e+04 
   1   836   1     0     1     1  8.36e+06   8.36e+06   1.000e+04 
   1   837   1     0     1     1  8.37e+06   8.37e+06   1.000e+04 
   1   838   1     0     1     1  8.38e+06   8.38e+06   1.000e+04 
   1   839   1     0     1     1  8.39e+06   8.39e+06   1.000e+04 
   1   840   1     0     1     1  8.40e+06   8.40e+06   1.000e+04 
   1   841   1     0     1     1  8.41e+06   8.41e+06   1.000e+04 
   1   842   1     0     1     1  8.42e+06   8.42e+06   1.000e+04 
   1   843   1     0     1     1  8.43e+06   8.43e+06   1.000e+04 
   1   844   1     0     1     1  8.44e+06   8.44e+06   1.000e+04 
   1   845   1     0     1     1  8.45e+06   8.45e+06   1.000e+04 
   1   846   1     0     1     1  8.46e+06   8.46e+06   1.000e+04 
   1   847   1     0     1     1  8.47e+06   8.47e+06   1.000e+04 
   1   848   1     0     1     1  8.48e+06   8.48e+06   1.000e+04 
   1   849   1     0     1     1  8.49e+06   8.49e+06   1.000e+04 
   1   850   1     0     1     1  8.50e+06   8.50e+06   1.000e+04 
   1   851   1     0     1     1  8.51e+06   8.51e+06   1.000e+04 
   1   852   1     0     1     1  8.52e+06   8.52e+06   1.000e+04 
   1   853   1     0     1     1  8.53e+06   8.53e+06   1.000e+04 
   1   854   1     0     1     1  8.54e+06   8.54e+06   1.000e+04 
   1   855   1     0     1     1  8.55e+06   8.55e+06   1.000e+04 
   1   856   1     0     1     1  8.56e+06   8.56e+06   1.000e+04 
   1   857   1     0     1     1  8.57e+06   8.57e+06   1.000e+04 
   1   858   1     0     1     1  8.58e+06   8.58e+06   1.000e+04 
   1   859   1     0     1     1  8.59e+06   8.59e+06   1.000e+04 
   1   860   1     0     1     1  8.60e+06   8.60e+06   1.000e+04 
   1   861   1     0     1     1  8.61e+06   8.61e+06   1.000e+04 
   1   862   1     0     1     1  8.62e+06   8.62e+06   1.000e+04 
   1   863   1     0     1     1  8.63e+06   8.63e+06   1.000e+04 
   1   864   1     0     1     1  8.64e+06   8.64e+06   1.000e+04 
   1   865   1     0     1     1  8.65e+06   8.65e+06   1.000e+04 
   1   866   1     0     1     1  8.66e+06   8.66e+06   1.000e+04 
   1   867   1     0     1     1  8.67e+06   8.67e+06   1.000e+04 
   1   868   1     0     1     1  8.68e+06   8.68e+06   1.000e+04 
   1   869   1     0     1     1  8.69e+06   8.69e+06   1.000e+04 
   1   870   1     0     1     1  8.70e+06   8.70e+06   1.000e+04 
   1   871   1     0     1     1  8.71e+06   8.71e+06   1.000e+04 
   1   872   1     0     1     1  8.72e+06   8.72e+06   1.000e+04 
   1   873   1     0     1     1  8.73e+06   8.73e+06   1.000e+04 
   1   874   1     0     1     1  8.74e+06   8.74e+06   1.000e+04 
   1   875   1     0     1     1  8.75e+06   8.75e+06   1.000e+04 
   1   876   1     0     1     1  8.76e+06   8.76e+06   1.000e+04 
   1   877   1     0     1     1  8.77e+06   8.77e+06   1.000e+04 
   1   878   1     0     1     1  8.78e+06   8.78e+06   1.000e+04 
   1   879   1     0     1     1  8.79e+06   8.79e+06   1.000e+04 
   1   880   1     0     1     1  8.80e+06   8.80e+06   1.000e+04 
   1   881   1     0     1     1  8.81e+06   8.81e+06   1.000e+04 
   1   882   1     0     1     1  8.82e+06   8.82e+06   1.000e+04 
   1   883   1     0     1     1  8.83e+06   8.83e+06   1.000e+04 
   1   884   1     0     1     1  8.84e+06   8.84e+06   1.000e+04 
   1   885   1     0     1     1  8.85e+06   8.85e+06   1.000e+04 
   1   886   1     0     1     1  8.86e+06   8.86e+06   1.000e+04 
   1   887   1     0     1     1  8.87e+06   8.87e+06   1.000e+04 
   1   888   1     0     1     1  8.88e+06   8.88e+06   1.000e+04 
   1   889   1     0     1     1  8.89e+06   8.89e+06   1.000e+04 
   1   890   1     0     1     1  8.90e+06   8.90e+06   1.000e+04 
   1   891   1     0     1     1  8.91e+06   8.91e+06   1.000e+04 
   1   892   1     0     1     1  8.92e+06   8.92e+06   1.000e+04 
   1   893   1     0     1     1  8.93e+06   8.93e+06   1.000e+04 
   1   894   1     0     1     1  8.94e+06   8.94e+06   1.000e+04 
   1   895   1     0     1     1  8.95e+06   8.95e+06   1.000e+04 
   1   896   1     0     1     1  8.96e+06   8.96e+06   1.000e+04 
   1   897   1     0     1     1  8.97e+06   8.97e+06   1.000e+04 
   1   898   1     0     1     1  8.98e+06   8.98e+06   1.000e+04 
   1   899   1     0     1     1  8.99e+06   8.99e+06   1.000e+04 
   1   900   1     0     1     1  9.00e+06   9.00e+06   1.000e+04 
   1   901   1     0     1     1  9.01e+06   9.01e+06   1.000e+04 
   1   902   1     0     1     1  9.02e+06   9.02e+06   1.000e+04 
   1   903   1     0     1     1  9.03e+06   9.03e+06   1.000e+04 
   1   904   1     0     1     1  9.04e+06   9.04e+06   1.000e+04 
   1   905   1     0     1     1  9.05e+06   9.05e+06   1.000e+04 
   1   906   1     0     1     1  9.06e+06   9.06e+06   1.000e+04 
   1   907   1     0     1     1  9.07e+06   9.07e+06   1.000e+04 
   1   908   1     0     1     1  9.08e+06   9.08e+06   1.000e+04 
   1   909   1     0     1     1  9.09e+06   9.09e+06   1.000e+04 
   1   910   1     0     1     1  9.10e+06   9.10e+06   1.000e+04 
   1   911   1     0     1     1  9.11e+06   9.11e+06   1.000e+04 
   1   912   1     0     1     1  9.12e+06   9.12e+06   1.000e+04 
   1   913   1     0     1     1  9.13e+06   9.13e+06   1.000e+04 
   1   914   1     0     1     1  9.14e+06   9.14e+06   1.000e+04 
   1   915   1     0     1     1  9.15e+06   9.15e+06   1.000e+04 
   1   916   1     0     1     1  9.16e+06   9.16e+06   1.000e+04 
   1   917   1     0     1     1  9.17e+06   9.17e+06   1.000e+04 
   1   918   1     0     1     1  9.18e+06   9.18e+06   1.000e+04 
   1   919   1     0     1     1  9.19e+06   9.19e+06   1.000e+04 
   1   920   1     0     1     1  9.20e+06   9.20e+06   1.000e+04 
   1   921   1     0     1     1  9.21e+06   9.21e+06   1.000e+04 
   1   922   1     0     1     1  9.22e+06   9.22e+06   1.000e+04 
   1   923   1     0     1     1  9.23e+06   9.23e+06   1.000e+04 
   1   924   1     0     1     1  9.24e+06   9.24e+06   1.000e+04 
   1   925   1     0     1     1  9.25e+06   9.25e+06   1.000e+04 
   1   926   1     0     1     1  9.26e+06   9.26e+06   1.000e+04 
   1   927   1     0     1     1  9.27e+06   9.27e+06   1.000e+04 
   1   928   1     0     1     1  9.28e+06   9.28e+06   1.000e+04 
   1   929   1     0     1     1  9.29e+06   9.29e+06   1.000e+04 
   1   930   1     0     1     1  9.30e+06   9.30e+06   1.000e+04 
   1   931   1     0     1     1  9.31e+06   9.31e+06   1.000e+04 
   1   932   1     0     1     1  9.32e+06   9.32e+06   1.000e+04 
   1   933   1     0     1     1  9.33e+06   9.33e+06   1.000e+04 
   1   934   1     0     1     1  9.34e+06   9.34e+06   1.000e+04 
   1   935   1     0     1     1  9.35e+06   9.35e+06   1.000e+04 
   1   936   1     0     1     1  9.36e+06   9.36e+06   1.000e+04 
   1   937   1     0     1     1  9.37e+06   9.37e+06   1.000e+04 
   1   938   1     0     1     1  9.38e+06   9.38e+06   1.000e+04 
   1   939   1     0     1     1  9.39e+06   9.39e+06   1.000e+04 
   1   940   1     0     1     1  9.40e+06   9.40e+06   1.000e+04 
   1   941   1     0     1     1  9.41e+06   9.41e+06   1.000e+04 
   1   942   1     0     1     1  9.42e+06   9.42e+06   1.000e+04 
   1   943   1     0     1     1  9.43e+06   9.43e+06   1.000e+04 
   1   944   1     0     1     1  9.44e+06   9.44e+06   1.000e+04 
   1   945   1     0     1     1  9.45e+06   9.45e+06   1.000e+04 
   1   946   1     0     1     1  9.46e+06   9.46e+06   1.000e+04 
   1   947   1     0     1     1  9.47e+06   9.47e+06   1.000e+04 
   1   948   1     0     1     1  9.48e+06   9.48e+06   1.000e+04 
   1   949   1     0     1     1  9.49e+06   9.49e+06   1.000e+04 
   1   950   1     0     1     1  9.50e+06   9.50e+06   1.000e+04 
   1   951   1     0     1     1  9.51e+06   9.51e+06   1.000e+04 
   1   952   1     0     1     1  9.52e+06   9.52e+06   1.000e+04 
   1   953   1     0     1     1  9.53e+06   9.53e+06   1.000e+04 
   1   954   1     0     1     1  9.54e+06   9.54e+06   1.000e+04 
   1   955   1     0     1     1  9.55e+06   9.55e+06   1.000e+04 
   1   956   1     0     1     1  9.56e+06   9.56e+06   1.000e+04 
   1   957   1     0     1     1  9.57e+06   9.57e+06   1.000e+04 
   1   958   1     0     1     1  9.58e+06   9.58e+06   1.000e+04 
   1   959   1     0     1     1  9.59e+06   9.59e+06   1.000e+04 
   1   960   1     0     1     1  9.60e+06   9.60e+06   1.000e+04 
   1   961   1     0     1     1  9.61e+06   9.61e+06   1.000e+04 
   1   962   1     0     1     1  9.62e+06   9.62e+06   1.000e+04 
   1   963   1     0     1     1  9.63e+06   9.63e+06   1.000e+04 
   1   964   1     0     1     1  9.64e+06   9.64e+06   1.000e+04 
   1   965   1     0     1     1  9.65e+06   9.65e+06   1.000e+04 
   1   966   1     0     1     1  9.66e+06   9.66e+06   1.000e+04 
   1   967   1     0     1     1  9.67e+06   9.67e+06   1.000e+04 
   1   968   1     0     1     1  9.68e+06   9.68e+06   1.000e+04 
   1   969   1     0     1     1  9.69e+06   9.69e+06   1.000e+04 
   1   970   1     0     1     1  9.70e+06   9.70e+06   1.000e+04 
   1   971   1     0     1     1  9.71e+06   9.71e+06   1.000e+04 
   1   972   1     0     1     1  9.72e+06   9.72e+06   1.000e+04 
   1   973   1     0     1     1  9.73e+06   9.73e+06   1.000e+04 
   1   974   1     0     1     1  9.74e+06   9.74e+06   1.000e+04 
   1   975   1     0     1     1  9.75e+06   9.75e+06   1.000e+04 
   1   976   1     0     1     1  9.76e+06   9.76e+06   1.000e+04 
   1   977   1     0     1     1  9.77e+06   9.77e+06   1.000e+04 
   1   978   1     0     1     1  9.78e+06   9.78e+06   1.000e+04 
   1   979   1     0     1     1  9.79e+06   9.79e+06   1.000e+04 
   1   980   1     0     1     1  9.80e+06   9.80e+06   1.000e+04 
   1   981   1     0     1     1  9.81e+06   9.81e+06   1.000e+04 
   1   982   1     0     1     1  9.82e+06   9.82e+06   1.000e+04 
   1   983   1     0     1     1  9.83e+06   9.83e+06   1.000e+04 
   1   984   1     0     1     1  9.84e+06   9.84e+06   1.000e+04 
   1   985   1     0     1     1  9.85e+06   9.85e+06   1.000e+04 
   1   986   1     0     1     1  9.86e+06   9.86e+06   1.000e+04 
   1   987   1     0     1     1  9.87e+06   9.87e+06   1.000e+04 
   1   988   1     0     1     1  9.88e+06   9.88e+06   1.000e+04 
   1   989   1     0     1     1  9.89e+06   9.89e+06   1.000e+04 
   1   990   1     0     1     1  9.90e+06   9.90e+06   1.000e+04 
   1   991   1     0     1     1  9.91e+06   9.91e+06   1.000e+04 
   1   992   1     0     1     1  9.92e+06   9.92e+06   1.000e+04 
   1   993   1     0     1     1  9.93e+06   9.93e+06   1.000e+04 
   1   994   1     0     1     1  9.94e+06   9.94e+06   1.000e+04 
   1   995   1     0     1     1  9.95e+06   9.95e+06   1.000e+04 
   1   996   1     0     1     1  9.96e+06   9.96e+06   1.000e+04 
   1   997   1     0     1     1  9.97e+06   9.97e+06   1.000e+04 
   1   998   1     0     1     1  9.98e+06   9.98e+06   1.000e+04 
   1   999   1     0     1     1  9.99e+06   9.99e+06   1.000e+04 
   1  1000   1     0     1     1  1.00e+07   1.00e+07   1.000e+04 
   1  1001   1     0     1     1  1.00e+07   1.00e+07   1.000e+04 
   1  1002   1     0     1     1  1.00e+07   1.00e+07   1.000e+04 
   1  1003   1     0     1     1  1.00e+07   1.00e+07   1.000e+04 
   1  1004   1     0     1     1  1.00e+07   1.00e+07   1.000e+04 
   1  1005   1     0     1     1  1.00e+07   1.00e+07   1.000e+04 
   1  1006   1     0     1     1  1.01e+07   1.01e+07   1.000e+04 
   1  1007   1     0     1     1  1.01e+07   1.01e+07   1.000e+04 
   1  1008   1     0     1     1  1.01e+07   1.01e+07   1.000e+04 
   1  1009   1     0     1     1  1.01e+07   1.01e+07   1.000e+04 
   1  1010   1     0     1     1  1.01e+07   1.01e+07   1.000e+04 
   1  1011   1     0     1     1  1.01e+07   1.01e+07   1.000e+04 
   1  1012   1     0     1     1  1.01e+07   1.01e+07   1.000e+04 
   1  1013   1     0     1     1  1.01e+07   1.01e+07   1.000e+04 
   1  1014   1     0     1     1  1.01e+07   1.01e+07   1.000e+04 
   1  1015   1     0     1     1  1.02e+07   1.02e+07   1.000e+04 
   1  1016   1     0     1     1  1.02e+07   1.02e+07   1.000e+04 
   1  1017   1     0     1     1  1.02e+07   1.02e+07   1.000e+04 
   1  1018   1     0     1     1  1.02e+07   1.02e+07   1.000e+04 
   1  1019   1     0     1     1  1.02e+07   1.02e+07   1.000e+04 
   1  1020   1     0     1     1  1.02e+07   1.02e+07   1.000e+04 
   1  1021   1     0     1     1  1.02e+07   1.02e+07   1.000e+04 
   1  1022   1     0     1     1  1.02e+07   1.02e+07   1.000e+04 
   1  1023   1     0     1     1  1.02e+07   1.02e+07   1.000e+04 
   1  1024   1     0     1     1  1.02e+07   1.02e+07   1.000e+04 
   1  1025   1     0     1     1  1.02e+07   1.02e+07   1.000e+04 
   1  1026   1     0     1     1  1.03e+07   1.03e+07   1.000e+04 
   1  1027   1     0     1     1  1.03e+07   1.03e+07   1.000e+04 
   1  1028   1     0     1     1  1.03e+07   1.03e+07   1.000e+04 
   1  1029   1     0     1     1  1.03e+07   1.03e+07   1.000e+04 
   1  1030   1     0     1     1  1.03e+07   1.03e+07   1.000e+04 
   1  1031   1     0     1     1  1.03e+07   1.03e+07   1.000e+04 
   1  1032   1     0     1     1  1.03e+07   1.03e+07   1.000e+04 
   1  1033   1     0     1     1  1.03e+07   1.03e+07   1.000e+04 
   1  1034   1     0     1     1  1.03e+07   1.03e+07   1.000e+04 
   1  1035   1     0     1     1  1.04e+07   1.04e+07   1.000e+04 
   1  1036   1     0     1     1  1.04e+07   1.04e+07   1.000e+04 
   1  1037   1     0     1     1  1.04e+07   1.04e+07   1.000e+04 
   1  1038   1     0     1     1  1.04e+07   1.04e+07   1.000e+04 
   1  1039   1     0     1     1  1.04e+07   1.04e+07   1.000e+04 
   1  1040   1     0     1     1  1.04e+07   1.04e+07   1.000e+04 
   1  1041   1     0     1     1  1.04e+07   1.04e+07   1.000e+04 
   1  1042   1     0     1     1  1.04e+07   1.04e+07   1.000e+04 
   1  1043   1     0     1     1  1.04e+07   1.04e+07   1.000e+04 
   1  1044   1     0     1     1  1.04e+07   1.04e+07   1.000e+04 
   1  1045   1     0     1     1  1.04e+07   1.04e+07   1.000e+04 
   1  1046   1     0     1     1  1.05e+07   1.05e+07   1.000e+04 
   1  1047   1     0     1     1  1.05e+07   1.05e+07   1.000e+04 
   1  1048   1     0     1     1  1.05e+07   1.05e+07   1.000e+04 
   1  1049   1     0     1     1  1.05e+07   1.05e+07   1.000e+04 
   1  1050   1     0     1     1  1.05e+07   1.05e+07   1.000e+04 
   1  1051   1     0     1     1  1.05e+07   1.05e+07   1.000e+04 
   1  1052   1     0     1     1  1.05e+07   1.05e+07   1.000e+04 
   1  1053   1     0     1     1  1.05e+07   1.05e+07   1.000e+04 
   1  1054   1     0     1     1  1.05e+07   1.05e+07   1.000e+04 
   1  1055   1     0     1     1  1.06e+07   1.06e+07   1.000e+04 
   1  1056   1     0     1     1  1.06e+07   1.06e+07   1.000e+04 
   1  1057   1     0     1     1  1.06e+07   1.06e+07   1.000e+04 
   1  1058   1     0     1     1  1.06e+07   1.06e+07   1.000e+04 
   1  1059   1     0     1     1  1.06e+07   1.06e+07   1.000e+04 
   1  1060   1     0     1     1  1.06e+07   1.06e+07   1.000e+04 
   1  1061   1     0     1     1  1.06e+07   1.06e+07   1.000e+04 
   1  1062   1     0     1     1  1.06e+07   1.06e+07   1.000e+04 
   1  1063   1     0     1     1  1.06e+07   1.06e+07   1.000e+04 
   1  1064   1     0     1     1  1.06e+07   1.06e+07   1.000e+04 
   1  1065   1     0     1     1  1.06e+07   1.06e+07   1.000e+04 
   1  1066   1     0     1     1  1.07e+07   1.07e+07   1.000e+04 
   1  1067   1     0     1     1  1.07e+07   1.07e+07   1.000e+04 
   1  1068   1     0     1     1  1.07e+07   1.07e+07   1.000e+04 
   1  1069   1     0     1     1  1.07e+07   1.07e+07   1.000e+04 
   1  1070   1     0     1     1  1.07e+07   1.07e+07   1.000e+04 
   1  1071   1     0     1     1  1.07e+07   1.07e+07   1.000e+04 
   1  1072   1     0     1     1  1.07e+07   1.07e+07   1.000e+04 
   1  1073   1     0     1     1  1.07e+07   1.07e+07   1.000e+04 
   1  1074   1     0     1     1  1.07e+07   1.07e+07   1.000e+04 
   1  1075   1     0     1     1  1.08e+07   1.08e+07   1.000e+04 
   1  1076   1     0     1     1  1.08e+07   1.08e+07   1.000e+04 
   1  1077   1     0     1     1  1.08e+07   1.08e+07   1.000e+04 
   1  1078   1     0     1     1  1.08e+07   1.08e+07   1.000e+04 
   1  1079   1     0     1     1  1.08e+07   1.08e+07   1.000e+04 
   1  1080   1     0     1     1  1.08e+07   1.08e+07   1.000e+04 
   1  1081   1     0     1     1  1.08e+07   1.08e+07   1.000e+04 
   1  1082   1     0     1     1  1.08e+07   1.08e+07   1.000e+04 
   1  1083   1     0     1     1  1.08e+07   1.08e+07   1.000e+04 
   1  1084   1     0     1     1  1.08e+07   1.08e+07   1.000e+04 
   1  1085   1     0     1     1  1.08e+07   1.08e+07   1.000e+04 
   1  1086   1     0     1     1  1.09e+07   1.09e+07   1.000e+04 
   1  1087   1     0     1     1  1.09e+07   1.09e+07   1.000e+04 
   1  1088   1     0     1     1  1.09e+07   1.09e+07   1.000e+04 
   1  1089   1     0     1     1  1.09e+07   1.09e+07   1.000e+04 
   1  1090   1     0     1     1  1.09e+07   1.09e+07   1.000e+04 
   1  1091   1     0     1     1  1.09e+07   1.09e+07   1.000e+04 
   1  1092   1     0     1     1  1.09e+07   1.09e+07   1.000e+04 
   1  1093   1     0     1     1  1.09e+07   1.09e+07   1.000e+04 
   1  1094   1     0     1     1  1.09e+07   1.09e+07   1.000e+04 
   1  1095   1     0     1     1  1.10e+07   1.10e+07   1.000e+04 
   1  1096   1     0     1     1  1.10e+07   1.10e+07   1.000e+04 
   1  1097   1     0     1     1  1.10e+07   1.10e+07   1.000e+04 
   1  1098   1     0     1     1  1.10e+07   1.10e+07   1.000e+04 
   1  1099   1     0     1     1  1.10e+07   1.10e+07   1.000e+04 
   1  1100   1     0     1     1  1.10e+07   1.10e+07   1.000e+04 
   1  1101   1     0     1     1  1.10e+07   1.10e+07   1.000e+04 
   1  1102   1     0     1     1  1.10e+07   1.10e+07   1.000e+04 
   1  1103   1     0     1     1  1.10e+07   1.10e+07   1.000e+04 
   1  1104   1     0     1     1  1.10e+07   1.10e+07   1.000e+04 
   1  1105   1     0     1     1  1.10e+07   1.10e+07   1.000e+04 
   1  1106   1     0     1     1  1.11e+07   1.11e+07   1.000e+04 
   1  1107   1     0     1     1  1.11e+07   1.11e+07   1.000e+04 
   1  1108   1     0     1     1  1.11e+07   1.11e+07   1.000e+04 
   1  1109   1     0     1     1  1.11e+07   1.11e+07   1.000e+04 
   1  1110   1     0     1     1  1.11e+07   1.11e+07   1.000e+04 
   1  1111   1     0     1     1  1.11e+07   1.11e+07   1.000e+04 
   1  1112   1     0     1     1  1.11e+07   1.11e+07   1.000e+04 
   1  1113   1     0     1     1  1.11e+07   1.11e+07   1.000e+04 
   1  1114   1     0     1     1  1.11e+07   1.11e+07   1.000e+04 
   1  1115   1     0     1     1  1.12e+07   1.12e+07   1.000e+04 
   1  1116   1     0     1     1  1.12e+07   1.12e+07   1.000e+04 
   1  1117   1     0     1     1  1.12e+07   1.12e+07   1.000e+04 
   1  1118   1     0     1     1  1.12e+07   1.12e+07   1.000e+04 
   1  1119   1     0     1     1  1.12e+07   1.12e+07   1.000e+04 
   1  1120   1     0     1     1  1.12e+07   1.12e+07   1.000e+04 
   1  1121   1     0     1     1  1.12e+07   1.12e+07   1.000e+04 
   1  1122   1     0     1     1  1.12e+07   1.12e+07   1.000e+04 
   1  1123   1     0     1     1  1.12e+07   1.12e+07   1.000e+04 
   1  1124   1     0     1     1  1.12e+07   1.12e+07   1.000e+04 
   1  1125   1     0     1     1  1.12e+07   1.12e+07   1.000e+04 
   1  1126   1     0     1     1  1.13e+07   1.13e+07   1.000e+04 
   1  1127   1     0     1     1  1.13e+07   1.13e+07   1.000e+04 
   1  1128   1     0     1     1  1.13e+07   1.13e+07   1.000e+04 
   1  1129   1     0     1     1  1.13e+07   1.13e+07   1.000e+04 
   1  1130   1     0     1     1  1.13e+07   1.13e+07   1.000e+04 
   1  1131   1     0     1     1  1.13e+07   1.13e+07   1.000e+04 
   1  1132   1     0     1     1  1.13e+07   1.13e+07   1.000e+04 
   1  1133   1     0     1     1  1.13e+07   1.13e+07   1.000e+04 
   1  1134   1     0     1     1  1.13e+07   1.13e+07   1.000e+04 
   1  1135   1     0     1     1  1.14e+07   1.14e+07   1.000e+04 
   1  1136   1     0     1     1  1.14e+07   1.14e+07   1.000e+04 
   1  1137   1     0     1     1  1.14e+07   1.14e+07   1.000e+04 
   1  1138   1     0     1     1  1.14e+07   1.14e+07   1.000e+04 
   1  1139   1     0     1     1  1.14e+07   1.14e+07   1.000e+04 
   1  1140   1     0     1     1  1.14e+07   1.14e+07   1.000e+04 
   1  1141   1     0     1     1  1.14e+07   1.14e+07   1.000e+04 
   1  1142   1     0     1     1  1.14e+07   1.14e+07   1.000e+04 
   1  1143   1     0     1     1  1.14e+07   1.14e+07   1.000e+04 
   1  1144   1     0     1     1  1.14e+07   1.14e+07   1.000e+04 
   1  1145   1     0     1     1  1.14e+07   1.14e+07   1.000e+04 
   1  1146   1     0     1     1  1.15e+07   1.15e+07   1.000e+04 
   1  1147   1     0     1     1  1.15e+07   1.15e+07   1.000e+04 
   1  1148   1     0     1     1  1.15e+07   1.15e+07   1.000e+04 
   1  1149   1     0     1     1  1.15e+07   1.15e+07   1.000e+04 
   1  1150   1     0     1     1  1.15e+07   1.15e+07   1.000e+04 
   1  1151   1     0     1     1  1.15e+07   1.15e+07   1.000e+04 
   1  1152   1     0     1     1  1.15e+07   1.15e+07   1.000e+04 
   1  1153   1     0     1     1  1.15e+07   1.15e+07   1.000e+04 
   1  1154   1     0     1     1  1.15e+07   1.15e+07   1.000e+04 
   1  1155   1     0     1     1  1.16e+07   1.16e+07   1.000e+04 
   1  1156   1     0     1     1  1.16e+07   1.16e+07   1.000e+04 
   1  1157   1     0     1     1  1.16e+07   1.16e+07   1.000e+04 
   1  1158   1     0     1     1  1.16e+07   1.16e+07   1.000e+04 
   1  1159   1     0     1     1  1.16e+07   1.16e+07   1.000e+04 
   1  1160   1     0     1     1  1.16e+07   1.16e+07   1.000e+04 
   1  1161   1     0     1     1  1.16e+07   1.16e+07   1.000e+04 
   1  1162   1     0     1     1  1.16e+07   1.16e+07   1.000e+04 
   1  1163   1     0     1     1  1.16e+07   1.16e+07   1.000e+04 
   1  1164   1     0     1     1  1.16e+07   1.16e+07   1.000e+04 
   1  1165   1     0     1     1  1.16e+07   1.16e+07   1.000e+04 
   1  1166   1     0     1     1  1.17e+07   1.17e+07   1.000e+04 
   1  1167   1     0     1     1  1.17e+07   1.17e+07   1.000e+04 
   1  1168   1     0     1     1  1.17e+07   1.17e+07   1.000e+04 
   1  1169   1     0     1     1  1.17e+07   1.17e+07   1.000e+04 
   1  1170   1     0     1     1  1.17e+07   1.17e+07   1.000e+04 
   1  1171   1     0     1     1  1.17e+07   1.17e+07   1.000e+04 
   1  1172   1     0     1     1  1.17e+07   1.17e+07   1.000e+04 
   1  1173   1     0     1     1  1.17e+07   1.17e+07   1.000e+04 
   1  1174   1     0     1     1  1.17e+07   1.17e+07   1.000e+04 
   1  1175   1     0     1     1  1.18e+07   1.18e+07   1.000e+04 
   1  1176   1     0     1     1  1.18e+07   1.18e+07   1.000e+04 
   1  1177   1     0     1     1  1.18e+07   1.18e+07   1.000e+04 
   1  1178   1     0     1     1  1.18e+07   1.18e+07   1.000e+04 
   1  1179   1     0     1     1  1.18e+07   1.18e+07   1.000e+04 
   1  1180   1     0     1     1  1.18e+07   1.18e+07   1.000e+04 
   1  1181   1     0     1     1  1.18e+07   1.18e+07   1.000e+04 
   1  1182   1     0     1     1  1.18e+07   1.18e+07   1.000e+04 
   1  1183   1     0     1     1  1.18e+07   1.18e+07   1.000e+04 
   1  1184   1     0     1     1  1.18e+07   1.18e+07   1.000e+04 
   1  1185   1     0     1     1  1.18e+07   1.18e+07   1.000e+04 
   1  1186   1     0     1     1  1.19e+07   1.19e+07   1.000e+04 
   1  1187   1     0     1     1  1.19e+07   1.19e+07   1.000e+04 
   1  1188   1     0     1     1  1.19e+07   1.19e+07   1.000e+04 
   1  1189   1     0     1     1  1.19e+07   1.19e+07   1.000e+04 
[...]
   1  1704   1     0     1     1  1.70e+07   1.70e+07   1.000e+04 
   1  1705   1     0     1     1  1.70e+07   1.70e+07   1.000e+04 
   1  1706   1     0     1     1  1.71e+07   1.71e+07   1.000e+04 
   1  1707   1     0     1     1  1.71e+07   1.71e+07   1.000e+04 
   1  1708   1     0     1     1  1.71e+07   1.71e+07   1.000e+04 
   1  1709   1     0     1     1  1.71e+07   1.71e+07   1.000e+04 
   1  1710   1     0     1     1  1.71e+07   1.71e+07   1.000e+04 
   1  1711   1     0     1     1  1.71e+07   1.71e+07   1.000e+04 
   1  1712   1     0     1     1  1.71e+07   1.71e+07   1.000e+04 
   1  1713   1     0     1     1  1.71e+07   1.71e+07   1.000e+04 
   1  1714   1     0     1     1  1.71e+07   1.71e+07   1.000e+04 
   1  1715   1     0     1     1  1.72e+07   1.72e+07   1.000e+04 
   1  1716   1     0     1     1  1.72e+07   1.72e+07   1.000e+04 
   1  1717   1     0     1     1  1.72e+07   1.72e+07   1.000e+04 
   1  1718   1     0     1     1  1.72e+07   1.72e+07   1.000e+04 
   1  1719   1     0     1     1  1.72e+07   1.72e+07   1.000e+04 
   1  1720   1     0     1     1  1.72e+07   1.72e+07   1.000e+04 
   1  1721   1     0     1     1  1.72e+07   1.72e+07   1.000e+04 
   1  1722   1     0     1     1  1.72e+07   1.72e+07   1.000e+04 
   1  1723   1     0     1     1  1.72e+07   1.72e+07   1.000e+04 
   1  1724   1     0     1     1  1.72e+07   1.72e+07   1.000e+04 
   1  1725   1     0     1     1  1.72e+07   1.72e+07   1.000e+04 
   1  1726   1     0     1     1  1.73e+07   1.73e+07   1.000e+04 
   1  1727   1     0     1     1  1.73e+07   1.73e+07   1.000e+04 
   1  1728   1     0     1     1  1.73e+07   1.73e+07   1.000e+04 
   1  1729   1     0     1     1  1.73e+07   1.73e+07   1.000e+04 
   1  1730   1     0     1     1  1.73e+07   1.73e+07   1.000e+04 
   1  1731   1     0     1     1  1.73e+07   1.73e+07   1.000e+04 
   1  1732   1     0     1     1  1.73e+07   1.73e+07   1.000e+04 
   1  1733   1     0     1     1  1.73e+07   1.73e+07   1.000e+04 
   1  1734   1     0     1     1  1.73e+07   1.73e+07   1.000e+04 
   1  1735   1     0     1     1  1.74e+07   1.74e+07   1.000e+04 
   1  1736   1     0     1     1  1.74e+07   1.74e+07   1.000e+04 
   1  1737   1     0     1     1  1.74e+07   1.74e+07   1.000e+04 
   1  1738   1     0     1     1  1.74e+07   1.74e+07   1.000e+04 
   1  1739   1     0     1     1  1.74e+07   1.74e+07   1.000e+04 
   1  1740   1     0     1     1  1.74e+07   1.74e+07   1.000e+04 
   1  1741   1     0     1     1  1.74e+07   1.74e+07   1.000e+04 
   1  1742   1     0     1     1  1.74e+07   1.74e+07   1.000e+04 
   1  1743   1     0     1     1  1.74e+07   1.74e+07   1.000e+04 
   1  1744   1     0     1     1  1.74e+07   1.74e+07   1.000e+04 
   1  1745   1     0     1     1  1.74e+07   1.74e+07   1.000e+04 
   1  1746   1     0     1     1  1.75e+07   1.75e+07   1.000e+04 
   1  1747   1     0     1     1  1.75e+07   1.75e+07   1.000e+04 
   1  1748   1     0     1     1  1.75e+07   1.75e+07   1.000e+04 
   1  1749   1     0     1     1  1.75e+07   1.75e+07   1.000e+04 
   1  1750   1     0     1     1  1.75e+07   1.75e+07   1.000e+04 
   1  1751   1     0     1     1  1.75e+07   1.75e+07   1.000e+04 
   1  1752   1     0     1     1  1.75e+07   1.75e+07   1.000e+04 
   1  1753   1     0     1     1  1.75e+07   1.75e+07   1.000e+04 
   1  1754   1     0     1     1  1.75e+07   1.75e+07   1.000e+04 
   1  1755   1     0     1     1  1.76e+07   1.76e+07   1.000e+04 
   1  1756   1     0     1     1  1.76e+07   1.76e+07   1.000e+04 
   1  1757   1     0     1     1  1.76e+07   1.76e+07   1.000e+04 
   1  1758   1     0     1     1  1.76e+07   1.76e+07   1.000e+04 
   1  1759   1     0     1     1  1.76e+07   1.76e+07   1.000e+04 
   1  1760   1     0     1     1  1.76e+07   1.76e+07   1.000e+04 
   1  1761   1     0     1     1  1.76e+07   1.76e+07   1.000e+04 
   1  1762   1     0     1     1  1.76e+07   1.76e+07   1.000e+04 
   1  1763   1     0     1     1  1.76e+07   1.76e+07   1.000e+04 
   1  1764   1     0     1     1  1.76e+07   1.76e+07   1.000e+04 
   1  1765   1     0     1     1  1.76e+07   1.76e+07   1.000e+04 
   1  1766   1     0     1     1  1.77e+07   1.77e+07   1.000e+04 
   1  1767   1     0     1     1  1.77e+07   1.77e+07   1.000e+04 
   1  1768   1     0     1     1  1.77e+07   1.77e+07   1.000e+04 
   1  1769   1     0     1     1  1.77e+07   1.77e+07   1.000e+04 
   1  1770   1     0     1     1  1.77e+07   1.77e+07   1.000e+04 
   1  1771   1     0     1     1  1.77e+07   1.77e+07   1.000e+04 
   1  1772   1     0     1     1  1.77e+07   1.77e+07   1.000e+04 
   1  1773   1     0     1     1  1.77e+07   1.77e+07   1.000e+04 
   1  1774   1     0     1     1  1.77e+07   1.77e+07   1.000e+04 
   1  1775   1     0     1     1  1.78e+07   1.78e+07   1.000e+04 
   1  1776   1     0     1     1  1.78e+07   1.78e+07   1.000e+04 
   1  1777   1     0     1     1  1.78e+07   1.78e+07   1.000e+04 
   1  1778   1     0     1     1  1.78e+07   1.78e+07   1.000e+04 
   1  1779   1     0     1     1  1.78e+07   1.78e+07   1.000e+04 
   1  1780   1     0     1     1  1.78e+07   1.78e+07   1.000e+04 
   1  1781   1     0     1     1  1.78e+07   1.78e+07   1.000e+04 
   1  1782   1     0     1     1  1.78e+07   1.78e+07   1.000e+04 
   1  1783   1     0     1     1  1.78e+07   1.78e+07   1.000e+04 
   1  1784   1     0     1     1  1.78e+07   1.78e+07   1.000e+04 
   1  1785   1     0     1     1  1.78e+07   1.78e+07   1.000e+04 
   1  1786   1     0     1     1  1.79e+07   1.79e+07   1.000e+04 
   1  1787   1     0     1     1  1.79e+07   1.79e+07   1.000e+04 
   1  1788   1     0     1     1  1.79e+07   1.79e+07   1.000e+04 
   1  1789   1     0     1     1  1.79e+07   1.79e+07   1.000e+04 
   1  1790   1     0     1     1  1.79e+07   1.79e+07   1.000e+04 
   1  1791   1     0     1     1  1.79e+07   1.79e+07   1.000e+04 
   1  1792   1     0     1     1  1.79e+07   1.79e+07   1.000e+04 
   1  1793   1     0     1     1  1.79e+07   1.79e+07   1.000e+04 
   1  1794   1     0     1     1  1.79e+07   1.79e+07   1.000e+04 
   1  1795   1     0     1     1  1.80e+07   1.80e+07   1.000e+04 
   1  1796   1     0     1     1  1.80e+07   1.80e+07   1.000e+04 
   1  1797   1     0     1     1  1.80e+07   1.80e+07   1.000e+04 
   1  1798   1     0     1     1  1.80e+07   1.80e+07   1.000e+04 
   1  1799   1     0     1     1  1.80e+07   1.80e+07   1.000e+04 
   1  1800   1     0     1     1  1.80e+07   1.80e+07   1.000e+04 
   1  1801   1     0     1     1  1.80e+07   1.80e+07   1.000e+04 
   1  1802   1     0     1     1  1.80e+07   1.80e+07   1.000e+04 
   1  1803   1     0     1     1  1.80e+07   1.80e+07   1.000e+04 
   1  1804   1     0     1     1  1.80e+07   1.80e+07   1.000e+04 
   1  1805   1     0     1     1  1.80e+07   1.80e+07   1.000e+04 
   1  1806   1     0     1     1  1.81e+07   1.81e+07   1.000e+04 
   1  1807   1     0     1     1  1.81e+07   1.81e+07   1.000e+04 
   1  1808   1     0     1     1  1.81e+07   1.81e+07   1.000e+04 
   1  1809   1     0     1     1  1.81e+07   1.81e+07   1.000e+04 
   1  1810   1     0     1     1  1.81e+07   1.81e+07   1.000e+04 
   1  1811   1     0     1     1  1.81e+07   1.81e+07   1.000e+04 
   1  1812   1     0     1     1  1.81e+07   1.81e+07   1.000e+04 
   1  1813   1     0     1     1  1.81e+07   1.81e+07   1.000e+04 
   1  1814   1     0     1     1  1.81e+07   1.81e+07   1.000e+04 
   1  1815   1     0     1     1  1.82e+07   1.82e+07   1.000e+04 
   1  1816   1     0     1     1  1.82e+07   1.82e+07   1.000e+04 
   1  1817   1     0     1     1  1.82e+07   1.82e+07   1.000e+04 
   1  1818   1     0     1     1  1.82e+07   1.82e+07   1.000e+04 
   1  1819   1     0     1     1  1.82e+07   1.82e+07   1.000e+04 
   1  1820   1     0     1     1  1.82e+07   1.82e+07   1.000e+04 
   1  1821   1     0     1     1  1.82e+07   1.82e+07   1.000e+04 
   1  1822   1     0     1     1  1.82e+07   1.82e+07   1.000e+04 
   1  1823   1     0     1     1  1.82e+07   1.82e+07   1.000e+04 
   1  1824   1     0     1     1  1.82e+07   1.82e+07   1.000e+04 
   1  1825   1     0     1     1  1.82e+07   1.82e+07   1.000e+04 
   1  1826   1     0     1     1  1.83e+07   1.83e+07   1.000e+04 
   1  1827   1     0     1     1  1.83e+07   1.83e+07   1.000e+04 
   1  1828   1     0     1     1  1.83e+07   1.83e+07   1.000e+04 
   1  1829   1     0     1     1  1.83e+07   1.83e+07   1.000e+04 
   1  1830   1     0     1     1  1.83e+07   1.83e+07   1.000e+04 
   1  1831   1     0     1     1  1.83e+07   1.83e+07   1.000e+04 
   1  1832   1     0     1     1  1.83e+07   1.83e+07   1.000e+04 
   1  1833   1     0     1     1  1.83e+07   1.83e+07   1.000e+04 
   1  1834   1     0     1     1  1.83e+07   1.83e+07   1.000e+04 
   1  1835   1     0     1     1  1.84e+07   1.84e+07   1.000e+04 
   1  1836   1     0     1     1  1.84e+07   1.84e+07   1.000e+04 
   1  1837   1     0     1     1  1.84e+07   1.84e+07   1.000e+04 
   1  1838   1     0     1     1  1.84e+07   1.84e+07   1.000e+04 
   1  1839   1     0     1     1  1.84e+07   1.84e+07   1.000e+04 
   1  1840   1     0     1     1  1.84e+07   1.84e+07   1.000e+04 
   1  1841   1     0     1     1  1.84e+07   1.84e+07   1.000e+04 
   1  1842   1     0     1     1  1.84e+07   1.84e+07   1.000e+04 
   1  1843   1     0     1     1  1.84e+07   1.84e+07   1.000e+04 
   1  1844   1     0     1     1  1.84e+07   1.84e+07   1.000e+04 
   1  1845   1     0     1     1  1.84e+07   1.84e+07   1.000e+04 
   1  1846   1     0     1     1  1.85e+07   1.85e+07   1.000e+04 
   1  1847   1     0     1     1  1.85e+07   1.85e+07   1.000e+04 
   1  1848   1     0     1     1  1.85e+07   1.85e+07   1.000e+04 
   1  1849   1     0     1     1  1.85e+07   1.85e+07   1.000e+04 
   1  1850   1     0     1     1  1.85e+07   1.85e+07   1.000e+04 
   1  1851   1     0     1     1  1.85e+07   1.85e+07   1.000e+04 
   1  1852   1     0     1     1  1.85e+07   1.85e+07   1.000e+04 
   1  1853   1     0     1     1  1.85e+07   1.85e+07   1.000e+04 
   1  1854   1     0     1     1  1.85e+07   1.85e+07   1.000e+04 
   1  1855   1     0     1     1  1.86e+07   1.86e+07   1.000e+04 
   1  1856   1     0     1     1  1.86e+07   1.86e+07   1.000e+04 
   1  1857   1     0     1     1  1.86e+07   1.86e+07   1.000e+04 
   1  1858   1     0     1     1  1.86e+07   1.86e+07   1.000e+04 
   1  1859   1     0     1     1  1.86e+07   1.86e+07   1.000e+04 
   1  1860   1     0     1     1  1.86e+07   1.86e+07   1.000e+04 
   1  1861   1     0     1     1  1.86e+07   1.86e+07   1.000e+04 
   1  1862   1     0     1     1  1.86e+07   1.86e+07   1.000e+04 
   1  1863   1     0     1     1  1.86e+07   1.86e+07   1.000e+04 
   1  1864   1     0     1     1  1.86e+07   1.86e+07   1.000e+04 
   1  1865   1     0     1     1  1.86e+07   1.86e+07   1.000e+04 
   1  1866   1     0     1     1  1.87e+07   1.87e+07   1.000e+04 
   1  1867   1     0     1     1  1.87e+07   1.87e+07   1.000e+04 
   1  1868   1     0     1     1  1.87e+07   1.87e+07   1.000e+04 
   1  1869   1     0     1     1  1.87e+07   1.87e+07   1.000e+04 
   1  1870   1     0     1     1  1.87e+07   1.87e+07   1.000e+04 
   1  1871   1     0     1     1  1.87e+07   1.87e+07   1.000e+04 
   1  1872   1     0     1     1  1.87e+07   1.87e+07   1.000e+04 
   1  1873   1     0     1     1  1.87e+07   1.87e+07   1.000e+04 
   1  1874   1     0     1     1  1.87e+07   1.87e+07   1.000e+04 
   1  1875   1     0     1     1  1.88e+07   1.88e+07   1.000e+04 
   1  1876   1     0     1     1  1.88e+07   1.88e+07   1.000e+04 
   1  1877   1     0     1     1  1.88e+07   1.88e+07   1.000e+04 
   1  1878   1     0     1     1  1.88e+07   1.88e+07   1.000e+04 
   1  1879   1     0     1     1  1.88e+07   1.88e+07   1.000e+04 
   1  1880   1     0     1     1  1.88e+07   1.88e+07   1.000e+04 
   1  1881   1     0     1     1  1.88e+07   1.88e+07   1.000e+04 
   1  1882   1     0     1     1  1.88e+07   1.88e+07   1.000e+04 
   1  1883   1     0     1     1  1.88e+07   1.88e+07   1.000e+04 
   1  1884   1     0     1     1  1.88e+07   1.88e+07   1.000e+04 
   1  1885   1     0     1     1  1.88e+07   1.88e+07   1.000e+04 
   1  1886   1     0     1     1  1.89e+07   1.89e+07   1.000e+04 
   1  1887   1     0     1     1  1.89e+07   1.89e+07   1.000e+04 
   1  1888   1     0     1     1  1.89e+07   1.89e+07   1.000e+04 
   1  1889   1     0     1     1  1.89e+07   1.89e+07   1.000e+04 
   1  1890   1     0     1     1  1.89e+07   1.89e+07   1.000e+04 
   1  1891   1     0     1     1  1.89e+07   1.89e+07   1.000e+04 
   1  1892   1     0     1     1  1.89e+07   1.89e+07   1.000e+04 
   1  1893   1     0     1     1  1.89e+07   1.89e+07   1.000e+04 
   1  1894   1     0     1     1  1.89e+07   1.89e+07   1.000e+04 
   1  1895   1     0     1     1  1.90e+07   1.90e+07   1.000e+04 
   1  1896   1     0     1     1  1.90e+07   1.90e+07   1.000e+04 
   1  1897   1     0     1     1  1.90e+07   1.90e+07   1.000e+04 
   1  1898   1     0     1     1  1.90e+07   1.90e+07   1.000e+04 
   1  1899   1     0     1     1  1.90e+07   1.90e+07   1.000e+04 
   1  1900   1     0     1     1  1.90e+07   1.90e+07   1.000e+04 
   1  1901   1     0     1     1  1.90e+07   1.90e+07   1.000e+04 
   1  1902   1     0     1     1  1.90e+07   1.90e+07   1.000e+04 
   1  1903   1     0     1     1  1.90e+07   1.90e+07   1.000e+04 
   1  1904   1     0     1     1  1.90e+07   1.90e+07   1.000e+04 
   1  1905   1     0     1     1  1.90e+07   1.90e+07   1.000e+04 
   1  1906   1     0     1     1  1.91e+07   1.91e+07   1.000e+04 
   1  1907   1     0     1     1  1.91e+07   1.91e+07   1.000e+04 
   1  1908   1     0     1     1  1.91e+07   1.91e+07   1.000e+04 
   1  1909   1     0     1     1  1.91e+07   1.91e+07   1.000e+04 
   1  1910   1     0     1     1  1.91e+07   1.91e+07   1.000e+04 
   1  1911   1     0     1     1  1.91e+07   1.91e+07   1.000e+04 
   1  1912   1     0     1     1  1.91e+07   1.91e+07   1.000e+04 
   1  1913   1     0     1     1  1.91e+07   1.91e+07   1.000e+04 
   1  1914   1     0     1     1  1.91e+07   1.91e+07   1.000e+04 
   1  1915   1     0     1     1  1.92e+07   1.92e+07   1.000e+04 
   1  1916   1     0     1     1  1.92e+07   1.92e+07   1.000e+04 
   1  1917   1     0     1     1  1.92e+07   1.92e+07   1.000e+04 
   1  1918   1     0     1     1  1.92e+07   1.92e+07   1.000e+04 
   1  1919   1     0     1     1  1.92e+07   1.92e+07   1.000e+04 
   1  1920   1     0     1     1  1.92e+07   1.92e+07   1.000e+04 
   1  1921   1     0     1     1  1.92e+07   1.92e+07   1.000e+04 
   1  1922   1     0     1     1  1.92e+07   1.92e+07   1.000e+04 
   1  1923   1     0     1     1  1.92e+07   1.92e+07   1.000e+04 
   1  1924   1     0     1     1  1.92e+07   1.92e+07   1.000e+04 
   1  1925   1     0     1     1  1.92e+07   1.92e+07   1.000e+04 
   1  1926   1     0     1     1  1.93e+07   1.93e+07   1.000e+04 
   1  1927   1     0     1     1  1.93e+07   1.93e+07   1.000e+04 
   1  1928   1     0     1     1  1.93e+07   1.93e+07   1.000e+04 
   1  1929   1     0     1     1  1.93e+07   1.93e+07   1.000e+04 
   1  1930   1     0     1     1  1.93e+07   1.93e+07   1.000e+04 
   1  1931   1     0     1     1  1.93e+07   1.93e+07   1.000e+04 
   1  1932   1     0     1     1  1.93e+07   1.93e+07   1.000e+04 
   1  1933   1     0     1     1  1.93e+07   1.93e+07   1.000e+04 
   1  1934   1     0     1     1  1.93e+07   1.93e+07   1.000e+04 
   1  1935   1     0     1     1  1.94e+07   1.94e+07   1.000e+04 
   1  1936   1     0     1     1  1.94e+07   1.94e+07   1.000e+04 
   1  1937   1     0     1     1  1.94e+07   1.94e+07   1.000e+04 
   1  1938   1     0     1     1  1.94e+07   1.94e+07   1.000e+04 
   1  1939   1     0     1     1  1.94e+07   1.94e+07   1.000e+04 
   1  1940   1     0     1     1  1.94e+07   1.94e+07   1.000e+04 
   1  1941   1     0     1     1  1.94e+07   1.94e+07   1.000e+04 
   1  1942   1     0     1     1  1.94e+07   1.94e+07   1.000e+04 
   1  1943   1     0     1     1  1.94e+07   1.94e+07   1.000e+04 
   1  1944   1     0     1     1  1.94e+07   1.94e+07   1.000e+04 
   1  1945   1     0     1     1  1.94e+07   1.94e+07   1.000e+04 
   1  1946   1     0     1     1  1.95e+07   1.95e+07   1.000e+04 
   1  1947   1     0     1     1  1.95e+07   1.95e+07   1.000e+04 
   1  1948   1     0     1     1  1.95e+07   1.95e+07   1.000e+04 
   1  1949   1     0     1     1  1.95e+07   1.95e+07   1.000e+04 
   1  1950   1     0     1     1  1.95e+07   1.95e+07   1.000e+04 
   1  1951   1     0     1     1  1.95e+07   1.95e+07   1.000e+04 
   1  1952   1     0     1     1  1.95e+07   1.95e+07   1.000e+04 
   1  1953   1     0     1     1  1.95e+07   1.95e+07   1.000e+04 
   1  1954   1     0     1     1  1.95e+07   1.95e+07   1.000e+04 
   1  1955   1     0     1     1  1.96e+07   1.96e+07   1.000e+04 
   1  1956   1     0     1     1  1.96e+07   1.96e+07   1.000e+04 
   1  1957   1     0     1     1  1.96e+07   1.96e+07   1.000e+04 
   1  1958   1     0     1     1  1.96e+07   1.96e+07   1.000e+04 
   1  1959   1     0     1     1  1.96e+07   1.96e+07   1.000e+04 
   1  1960   1     0     1     1  1.96e+07   1.96e+07   1.000e+04 
   1  1961   1     0     1     1  1.96e+07   1.96e+07   1.000e+04 
   1  1962   1     0     1     1  1.96e+07   1.96e+07   1.000e+04 
   1  1963   1     0     1     1  1.96e+07   1.96e+07   1.000e+04 
   1  1964   1     0     1     1  1.96e+07   1.96e+07   1.000e+04 
   1  1965   1     0     1     1  1.96e+07   1.96e+07   1.000e+04 
   1  1966   1     0     1     1  1.97e+07   1.97e+07   1.000e+04 
   1  1967   1     0     1     1  1.97e+07   1.97e+07   1.000e+04 
   1  1968   1     0     1     1  1.97e+07   1.97e+07   1.000e+04 
   1  1969   1     0     1     1  1.97e+07   1.97e+07   1.000e+04 
   1  1970   1     0     1     1  1.97e+07   1.97e+07   1.000e+04 
   1  1971   1     0     1     1  1.97e+07   1.97e+07   1.000e+04 
   1  1972   1     0     1     1  1.97e+07   1.97e+07   1.000e+04 
   1  1973   1     0     1     1  1.97e+07   1.97e+07   1.000e+04 
   1  1974   1     0     1     1  1.97e+07   1.97e+07   1.000e+04 
   1  1975   1     0     1     1  1.98e+07   1.98e+07   1.000e+04 
   1  1976   1     0     1     1  1.98e+07   1.98e+07   1.000e+04 
   1  1977   1     0     1     1  1.98e+07   1.98e+07   1.000e+04 
   1  1978   1     0     1     1  1.98e+07   1.98e+07   1.000e+04 
   1  1979   1     0     1     1  1.98e+07   1.98e+07   1.000e+04 
   1  1980   1     0     1     1  1.98e+07   1.98e+07   1.000e+04 
   1  1981   1     0     1     1  1.98e+07   1.98e+07   1.000e+04 
   1  1982   1     0     1     1  1.98e+07   1.98e+07   1.000e+04 
   1  1983   1     0     1     1  1.98e+07   1.98e+07   1.000e+04 
   1  1984   1     0     1     1  1.98e+07   1.98e+07   1.000e+04 
   1  1985   1     0     1     1  1.98e+07   1.98e+07   1.000e+04 
   1  1986   1     0     1     1  1.99e+07   1.99e+07   1.000e+04 
   1  1987   1     0     1     1  1.99e+07   1.99e+07   1.000e+04 
   1  1988   1     0     1     1  1.99e+07   1.99e+07   1.000e+04 
   1  1989   1     0     1     1  1.99e+07   1.99e+07   1.000e+04 
   1  1990   1     0     1     1  1.99e+07   1.99e+07   1.000e+04 
   1  1991   1     0     1     1  1.99e+07   1.99e+07   1.000e+04 
   1  1992   1     0     1     1  1.99e+07   1.99e+07   1.000e+04 
   1  1993   1     0     1     1  1.99e+07   1.99e+07   1.000e+04 
   1  1994   1     0     1     1  1.99e+07   1.99e+07   1.000e+04 
   1  1995   1     0     1     1  2.00e+07   2.00e+07   1.000e+04 
   1  1996   1     0     1     1  2.00e+07   2.00e+07   1.000e+04 
   1  1997   1     0     1     1  2.00e+07   2.00e+07   1.000e+04 
   1  1998   1     0     1     1  2.00e+07   2.00e+07   1.000e+04 
   1  1999   1     0     1     1  2.00e+07   2.00e+07   1.000e+04 
   1  2000   1     0     1     1  2.00e+07   2.00e+07   1.000e+04 
                          
 THE ANALYSIS HAS COMPLETED SUCCESSFULLY
