*Heading
** Job name: Job-1 Model name: Model-1
** Generated by: Abaqus/CAE 2023.HF4
*Preprint, echo=NO, model=NO, history=NO, contact=NO
**
** PARTS
**
*Part, name=cube
*End Part
**  
**
** ASSEMBLY
**
*Assembly, name=Assembly
**  
*Instance, name=cube-1, part=cube
*End Instance
**  
*End Assembly
** 
** MATERIALS
** 
*Material, name=Steel
*Density
 7.8e-09,
*Depvar
      2,
*Elastic
200000., 0.3
*Plastic
250.,0.
450.,1.
*User Material, constants=4
200000., 0.3,250.,200.
