1

   Abaqus 2023.HF4                                  Date 09-Jun-2024   Time 16:11:37
   For use by AALTO UNIVERSITY under license from Dassault Systemes or its subsidiary.

                                                                                 
                                                                                 
 STEP    1     INCREMENT     1     STEP TIME    0.00    


                        S T E P       1     S T A T I C   A N A L Y S I S


                                                                                          

     AUTOMATIC TIME CONTROL WITH -
          A SUGGESTED INITIAL TIME INCREMENT OF                 10.0    
          AND A TOTAL TIME PERIOD OF                           1.000E+03
          THE MINIMUM TIME INCREMENT ALLOWED IS                1.000E-05
          THE MAXIMUM TIME INCREMENT ALLOWED IS                 10.0    

     LINEAR EQUATION SOLVER TYPE         DIRECT SPARSE

 CONVERGENCE TOLERANCE PARAMETERS FOR FORCE    
     CRITERION FOR RESIDUAL FORCE     FOR A NONLINEAR PROBLEM          5.000E-03
     CRITERION FOR DISP.    CORRECTION IN A NONLINEAR PROBLEM          1.000E-02
     INITIAL VALUE OF TIME AVERAGE FORCE                               1.000E-02
     AVERAGE FORCE     IS TIME AVERAGE FORCE    
     ALTERNATE CRIT. FOR RESIDUAL FORCE     FOR A NONLINEAR PROBLEM    2.000E-02
     CRITERION FOR ZERO FORCE     RELATIVE TO TIME AVRG. FORCE         1.000E-05
     CRITERION FOR RESIDUAL FORCE     WHEN THERE IS ZERO FLUX          1.000E-05
     CRITERION FOR DISP.    CORRECTION WHEN THERE IS ZERO FLUX         1.000E-03
     CRITERION FOR RESIDUAL FORCE     FOR A LINEAR INCREMENT           1.000E-08
     FIELD CONVERSION RATIO                                             1.00    
     CRITERION FOR ZERO FORCE     REL. TO TIME AVRG. MAX. FORCE        1.000E-05
     CRITERION FOR ZERO DISP.    RELATIVE TO CHARACTERISTIC LENGTH     1.000E-08

     VOLUMETRIC STRAIN COMPATIBILITY TOLERANCE FOR HYBRID SOLIDS       1.000E-05
     AXIAL STRAIN COMPATIBILITY TOLERANCE FOR HYBRID BEAMS             1.000E-05
     TRANS. SHEAR STRAIN COMPATIBILITY TOLERANCE FOR HYBRID BEAMS      1.000E-05
     SOFT CONTACT CONSTRAINT COMPATIBILITY TOLERANCE FOR P>P0          5.000E-03
     SOFT CONTACT CONSTRAINT COMPATIBILITY TOLERANCE FOR P=0.0         0.100    
     CONTACT FORCE ERROR TOLERANCE FOR CONVERT SDI=YES                 1.00    
     DISPLACEMENT COMPATIBILITY TOLERANCE FOR DCOUP ELEMENTS           1.000E-05
     ROTATION COMPATIBILITY TOLERANCE FOR DCOUP ELEMENTS               1.000E-05

 EQUILIBRIUM WILL BE CHECKED FOR SEVERE DISCONTINUITY ITERATIONS

 TIME INCREMENTATION CONTROL PARAMETERS:
     FIRST EQUILIBRIUM ITERATION FOR CONSECUTIVE DIVERGENCE CHECK              4
     EQUILIBRIUM ITERATION AT WHICH LOG. CONVERGENCE RATE CHECK BEGINS         8
     EQUILIBRIUM ITERATION AFTER WHICH ALTERNATE RESIDUAL IS USED              9
     MAXIMUM EQUILIBRIUM ITERATIONS ALLOWED                                   16
     EQUILIBRIUM ITERATION COUNT FOR CUT-BACK IN NEXT INCREMENT               10
     MAXIMUM EQUILIB. ITERS IN TWO INCREMENTS FOR TIME INCREMENT INCREASE      4
     MAXIMUM ITERATIONS FOR SEVERE DISCONTINUITIES                            50
     MAXIMUM ATTEMPTS ALLOWED IN AN INCREMENT                                  5
     MAXIMUM DISCON. ITERS IN TWO INCREMENTS FOR TIME INCREMENT INCREASE      50
     MAXIMUM CONTACT AUGMENTATIONS FOR *SURFACE BEHAVIOR,AUGMENTED LAGRANGE   50
     CUT-BACK FACTOR AFTER DIVERGENCE                                 0.2500    
     CUT-BACK FACTOR FOR TOO SLOW CONVERGENCE                         0.5000    
     CUT-BACK FACTOR AFTER TOO MANY EQUILIBRIUM ITERATIONS            0.7500    
     CUT-BACK FACTOR AFTER TOO MANY SEVERE DISCONTINUITY ITERATIONS   0.2500    
     CUT-BACK FACTOR AFTER PROBLEMS IN ELEMENT ASSEMBLY               0.2500    
     INCREASE FACTOR AFTER TWO INCREMENTS THAT CONVERGE QUICKLY        1.500    
     MAX. TIME INCREMENT INCREASE FACTOR ALLOWED                       1.500    
     MAX. TIME INCREMENT INCREASE FACTOR ALLOWED (DYNAMICS)            1.250    
     MAX. TIME INCREMENT INCREASE FACTOR ALLOWED (DIFFUSION)           2.000    
     MINIMUM TIME INCREMENT RATIO FOR EXTRAPOLATION TO OCCUR          0.1000    
     MAX. RATIO OF TIME INCREMENT TO STABILITY LIMIT                   1.000    
     FRACTION OF STABILITY LIMIT FOR NEW TIME INCREMENT               0.9500    
     TIME INCREMENT INCREASE FACTOR BEFORE A TIME POINT                1.000    
     GLOBAL STABILIZATION CONTROL IS NOT USED

          PRINT OF INCREMENT NUMBER, TIME, ETC., EVERY    1  INCREMENTS

     THE MAXIMUM NUMBER OF INCREMENTS IN THIS STEP IS                  100000

          LARGE DISPLACEMENT THEORY WILL BE USED

     LINEAR EXTRAPOLATION WILL BE USED

     CHARACTERISTIC ELEMENT LENGTH     2.622E-04

     DETAILS REGARDING ACTUAL SOLUTION WAVEFRONT REQUESTED

     DETAILED OUTPUT OF DIAGNOSTICS TO DATABASE REQUESTED

     PRINT OF INCREMENT NUMBER, TIME, ETC., TO THE MESSAGE FILE EVERY     1  INCREMENTS

     ELEMENT OPERATIONS WILL BE CARRIED OUT IN PARALLEL USING   8 THREADS ON 1 DOMAIN

     PARALLEL CONTACT TRACKING ENABLED


     COLLECTING MODEL CONSTRAINT INFORMATION FOR OVERCONSTRAINT CHECKS

     COLLECTING STEP CONSTRAINT INFORMATION FOR OVERCONSTRAINT CHECKS


  INCREMENT     1 STARTS. ATTEMPT NUMBER  1, TIME INCREMENT   10.0    
 
     INITIAL ELEMENT LOAD BALANCE
            DOMAIN    1     THREAD    NUMBER OF ELEMENTS
                              1            4176
                              2            4264
                              3            4621
                              4            4392
                              5            4376
                              6            4088
                              7            3960
                              8            4576
 
	SYMMETRIC NEW DIRECT SPARSE SOLVER RUNNING ON
 	1 HOST x 1 MPI RANK PER HOST x 8 THREADS PER RANK
        NUMBER OF EQUATIONS:  129123
        NUMBER OF RHS:        1
        NUMBER OF FLOPS:      5.699e+10
        SOLVER ELAPSED TIME:  341ms

               CONVERGENCE CHECKS FOR EQUILIBRIUM ITERATION     1


 AVERAGE FORCE                      9.244E-02   TIME AVG. FORCE       9.244E-02
 LARGEST SCALED RESIDUAL FORCE      1.973E-03   AT NODE       1872   DOF  3
   INSTANCE: NDBR15-M-1                                                                      
  CORRESPONDING RESIDUAL FORCE      1.973E-03
 LARGEST INCREMENT OF DISP.         1.800E-05   AT NODE         21   DOF  2
   INSTANCE: NDBR15-M-1                                                                      
 LARGEST CORRECTION TO DISP.        1.800E-05   AT NODE         21   DOF  2
   INSTANCE: NDBR15-M-1                                                                      
          FORCE     EQUILIBRIUM NOT ACHIEVED WITHIN TOLERANCE.
 
	SYMMETRIC NEW DIRECT SPARSE SOLVER RUNNING ON
 	1 HOST x 1 MPI RANK PER HOST x 8 THREADS PER RANK
        NUMBER OF EQUATIONS:  129123
        NUMBER OF RHS:        1
        NUMBER OF FLOPS:      5.699e+10
        SOLVER ELAPSED TIME:  355ms

               CONVERGENCE CHECKS FOR EQUILIBRIUM ITERATION     2


 AVERAGE FORCE                      9.244E-02   TIME AVG. FORCE       9.244E-02
 LARGEST SCALED RESIDUAL FORCE     -3.022E-08   AT NODE        436   DOF  2
   INSTANCE: NDBR15-M-1                                                                      
  CORRESPONDING RESIDUAL FORCE     -3.022E-08
 LARGEST INCREMENT OF DISP.         1.800E-05   AT NODE         21   DOF  2
   INSTANCE: NDBR15-M-1                                                                      
 LARGEST CORRECTION TO DISP.        9.901E-11   AT NODE        432   DOF  2
   INSTANCE: NDBR15-M-1                                                                      
          THE FORCE     EQUILIBRIUM EQUATIONS HAVE CONVERGED

 ITERATION SUMMARY FOR THE INCREMENT:   2 TOTAL ITERATIONS, OF WHICH
   0 ARE SEVERE DISCONTINUITY ITERATIONS AND  2 ARE EQUILIBRIUM ITERATIONS.

 TIME INCREMENT COMPLETED   10.0    ,  FRACTION OF STEP COMPLETED  1.000E-02
 STEP TIME COMPLETED        10.0    ,  TOTAL TIME COMPLETED         10.0    


  INCREMENT     2 STARTS. ATTEMPT NUMBER  1, TIME INCREMENT   10.0    
 
	SYMMETRIC NEW DIRECT SPARSE SOLVER RUNNING ON
 	1 HOST x 1 MPI RANK PER HOST x 8 THREADS PER RANK
        NUMBER OF EQUATIONS:  129123
        NUMBER OF RHS:        1
        NUMBER OF FLOPS:      5.699e+10
        SOLVER ELAPSED TIME:  360ms

               CONVERGENCE CHECKS FOR EQUILIBRIUM ITERATION     1


 AVERAGE FORCE                      0.195       TIME AVG. FORCE       0.144    
 LARGEST SCALED RESIDUAL FORCE     -6.876E-08   AT NODE       2259   DOF  2
   INSTANCE: NDBR15-M-1                                                                      
  CORRESPONDING RESIDUAL FORCE     -6.876E-08
 LARGEST INCREMENT OF DISP.         1.800E-05   AT NODE         21   DOF  2
   INSTANCE: NDBR15-M-1                                                                      
 LARGEST CORRECTION TO DISP.        1.889E-10   AT NODE        432   DOF  2
   INSTANCE: NDBR15-M-1                                                                      
          THE FORCE     EQUILIBRIUM EQUATIONS HAVE CONVERGED

 ITERATION SUMMARY FOR THE INCREMENT:   1 TOTAL ITERATIONS, OF WHICH
   0 ARE SEVERE DISCONTINUITY ITERATIONS AND  1 ARE EQUILIBRIUM ITERATIONS.

 TIME INCREMENT COMPLETED   10.0    ,  FRACTION OF STEP COMPLETED  2.000E-02
 STEP TIME COMPLETED        20.0    ,  TOTAL TIME COMPLETED         20.0    


  INCREMENT     3 STARTS. ATTEMPT NUMBER  1, TIME INCREMENT   10.0    
 
	SYMMETRIC NEW DIRECT SPARSE SOLVER RUNNING ON
 	1 HOST x 1 MPI RANK PER HOST x 8 THREADS PER RANK
        NUMBER OF EQUATIONS:  129123
        NUMBER OF RHS:        1
        NUMBER OF FLOPS:      5.699e+10
        SOLVER ELAPSED TIME:  354ms

               CONVERGENCE CHECKS FOR EQUILIBRIUM ITERATION     1


 AVERAGE FORCE                      0.292       TIME AVG. FORCE       0.193    
 LARGEST SCALED RESIDUAL FORCE     -1.225E-07   AT NODE       2259   DOF  2
   INSTANCE: NDBR15-M-1                                                                      
  CORRESPONDING RESIDUAL FORCE     -1.225E-07
 LARGEST INCREMENT OF DISP.         1.800E-05   AT NODE         21   DOF  2
   INSTANCE: NDBR15-M-1                                                                      
 LARGEST CORRECTION TO DISP.        1.889E-10   AT NODE        432   DOF  2
   INSTANCE: NDBR15-M-1                                                                      
          THE FORCE     EQUILIBRIUM EQUATIONS HAVE CONVERGED

 ITERATION SUMMARY FOR THE INCREMENT:   1 TOTAL ITERATIONS, OF WHICH
   0 ARE SEVERE DISCONTINUITY ITERATIONS AND  1 ARE EQUILIBRIUM ITERATIONS.

 TIME INCREMENT COMPLETED   10.0    ,  FRACTION OF STEP COMPLETED  3.000E-02
 STEP TIME COMPLETED        30.0    ,  TOTAL TIME COMPLETED         30.0    


  INCREMENT     4 STARTS. ATTEMPT NUMBER  1, TIME INCREMENT   10.0    
 
	SYMMETRIC NEW DIRECT SPARSE SOLVER RUNNING ON
 	1 HOST x 1 MPI RANK PER HOST x 8 THREADS PER RANK
        NUMBER OF EQUATIONS:  129123
        NUMBER OF RHS:        1
        NUMBER OF FLOPS:      5.699e+10
        SOLVER ELAPSED TIME:  375ms

               CONVERGENCE CHECKS FOR EQUILIBRIUM ITERATION     1


 AVERAGE FORCE                      0.390       TIME AVG. FORCE       0.242    
 LARGEST SCALED RESIDUAL FORCE     -1.763E-07   AT NODE       2259   DOF  2
   INSTANCE: NDBR15-M-1                                                                      
  CORRESPONDING RESIDUAL FORCE     -1.763E-07
 LARGEST INCREMENT OF DISP.         1.800E-05   AT NODE         21   DOF  2
   INSTANCE: NDBR15-M-1                                                                      
 LARGEST CORRECTION TO DISP.        1.888E-10   AT NODE        432   DOF  2
   INSTANCE: NDBR15-M-1                                                                      
          THE FORCE     EQUILIBRIUM EQUATIONS HAVE CONVERGED

 ITERATION SUMMARY FOR THE INCREMENT:   1 TOTAL ITERATIONS, OF WHICH
   0 ARE SEVERE DISCONTINUITY ITERATIONS AND  1 ARE EQUILIBRIUM ITERATIONS.

 TIME INCREMENT COMPLETED   10.0    ,  FRACTION OF STEP COMPLETED  4.000E-02
 STEP TIME COMPLETED        40.0    ,  TOTAL TIME COMPLETED         40.0    


  INCREMENT     5 STARTS. ATTEMPT NUMBER  1, TIME INCREMENT   10.0    
 
	SYMMETRIC NEW DIRECT SPARSE SOLVER RUNNING ON
 	1 HOST x 1 MPI RANK PER HOST x 8 THREADS PER RANK
        NUMBER OF EQUATIONS:  129123
        NUMBER OF RHS:        1
        NUMBER OF FLOPS:      5.699e+10
        SOLVER ELAPSED TIME:  362ms

               CONVERGENCE CHECKS FOR EQUILIBRIUM ITERATION     1


 AVERAGE FORCE                      0.487       TIME AVG. FORCE       0.291    
 LARGEST SCALED RESIDUAL FORCE     -2.300E-07   AT NODE       2259   DOF  2
   INSTANCE: NDBR15-M-1                                                                      
  CORRESPONDING RESIDUAL FORCE     -2.300E-07
 LARGEST INCREMENT OF DISP.         1.800E-05   AT NODE         21   DOF  2
   INSTANCE: NDBR15-M-1                                                                      
 LARGEST CORRECTION TO DISP.        1.888E-10   AT NODE        432   DOF  2
   INSTANCE: NDBR15-M-1                                                                      
          THE FORCE     EQUILIBRIUM EQUATIONS HAVE CONVERGED

 ITERATION SUMMARY FOR THE INCREMENT:   1 TOTAL ITERATIONS, OF WHICH
   0 ARE SEVERE DISCONTINUITY ITERATIONS AND  1 ARE EQUILIBRIUM ITERATIONS.

 TIME INCREMENT COMPLETED   10.0    ,  FRACTION OF STEP COMPLETED  5.000E-02
 STEP TIME COMPLETED        50.0    ,  TOTAL TIME COMPLETED         50.0    


  INCREMENT     6 STARTS. ATTEMPT NUMBER  1, TIME INCREMENT   10.0    
 
	SYMMETRIC NEW DIRECT SPARSE SOLVER RUNNING ON
 	1 HOST x 1 MPI RANK PER HOST x 8 THREADS PER RANK
        NUMBER OF EQUATIONS:  129123
        NUMBER OF RHS:        1
        NUMBER OF FLOPS:      5.699e+10
        SOLVER ELAPSED TIME:  548ms

               CONVERGENCE CHECKS FOR EQUILIBRIUM ITERATION     1


 AVERAGE FORCE                      0.585       TIME AVG. FORCE       0.340    
 LARGEST SCALED RESIDUAL FORCE     -2.836E-07   AT NODE       2259   DOF  2
   INSTANCE: NDBR15-M-1                                                                      
  CORRESPONDING RESIDUAL FORCE     -2.836E-07
 LARGEST INCREMENT OF DISP.         1.800E-05   AT NODE         21   DOF  2
   INSTANCE: NDBR15-M-1                                                                      
 LARGEST CORRECTION TO DISP.        1.888E-10   AT NODE        432   DOF  2
   INSTANCE: NDBR15-M-1                                                                      
          THE FORCE     EQUILIBRIUM EQUATIONS HAVE CONVERGED

 ITERATION SUMMARY FOR THE INCREMENT:   1 TOTAL ITERATIONS, OF WHICH
   0 ARE SEVERE DISCONTINUITY ITERATIONS AND  1 ARE EQUILIBRIUM ITERATIONS.

 TIME INCREMENT COMPLETED   10.0    ,  FRACTION OF STEP COMPLETED  6.000E-02
 STEP TIME COMPLETED        60.0    ,  TOTAL TIME COMPLETED         60.0    


  INCREMENT     7 STARTS. ATTEMPT NUMBER  1, TIME INCREMENT   10.0    
 
	SYMMETRIC NEW DIRECT SPARSE SOLVER RUNNING ON
 	1 HOST x 1 MPI RANK PER HOST x 8 THREADS PER RANK
        NUMBER OF EQUATIONS:  129123
        NUMBER OF RHS:        1
        NUMBER OF FLOPS:      5.699e+10
        SOLVER ELAPSED TIME:  554ms

               CONVERGENCE CHECKS FOR EQUILIBRIUM ITERATION     1


 AVERAGE FORCE                      0.682       TIME AVG. FORCE       0.389    
 LARGEST SCALED RESIDUAL FORCE     -3.373E-07   AT NODE       2259   DOF  2
   INSTANCE: NDBR15-M-1                                                                      
  CORRESPONDING RESIDUAL FORCE     -3.373E-07
 LARGEST INCREMENT OF DISP.         1.800E-05   AT NODE         21   DOF  2
   INSTANCE: NDBR15-M-1                                                                      
 LARGEST CORRECTION TO DISP.        1.888E-10   AT NODE        432   DOF  2
   INSTANCE: NDBR15-M-1                                                                      
          THE FORCE     EQUILIBRIUM EQUATIONS HAVE CONVERGED

 ITERATION SUMMARY FOR THE INCREMENT:   1 TOTAL ITERATIONS, OF WHICH
   0 ARE SEVERE DISCONTINUITY ITERATIONS AND  1 ARE EQUILIBRIUM ITERATIONS.

 TIME INCREMENT COMPLETED   10.0    ,  FRACTION OF STEP COMPLETED  7.000E-02
 STEP TIME COMPLETED        70.0    ,  TOTAL TIME COMPLETED         70.0    


  INCREMENT     8 STARTS. ATTEMPT NUMBER  1, TIME INCREMENT   10.0    
 
	SYMMETRIC NEW DIRECT SPARSE SOLVER RUNNING ON
 	1 HOST x 1 MPI RANK PER HOST x 8 THREADS PER RANK
        NUMBER OF EQUATIONS:  129123
        NUMBER OF RHS:        1
        NUMBER OF FLOPS:      5.699e+10
        SOLVER ELAPSED TIME:  548ms

               CONVERGENCE CHECKS FOR EQUILIBRIUM ITERATION     1


 AVERAGE FORCE                      0.779       TIME AVG. FORCE       0.438    
 LARGEST SCALED RESIDUAL FORCE     -3.909E-07   AT NODE       2259   DOF  2
   INSTANCE: NDBR15-M-1                                                                      
  CORRESPONDING RESIDUAL FORCE     -3.909E-07
 LARGEST INCREMENT OF DISP.         1.800E-05   AT NODE         21   DOF  2
   INSTANCE: NDBR15-M-1                                                                      
 LARGEST CORRECTION TO DISP.        1.887E-10   AT NODE        432   DOF  2
   INSTANCE: NDBR15-M-1                                                                      
          THE FORCE     EQUILIBRIUM EQUATIONS HAVE CONVERGED

 ITERATION SUMMARY FOR THE INCREMENT:   1 TOTAL ITERATIONS, OF WHICH
   0 ARE SEVERE DISCONTINUITY ITERATIONS AND  1 ARE EQUILIBRIUM ITERATIONS.

 TIME INCREMENT COMPLETED   10.0    ,  FRACTION OF STEP COMPLETED  8.000E-02
 STEP TIME COMPLETED        80.0    ,  TOTAL TIME COMPLETED         80.0    


  INCREMENT     9 STARTS. ATTEMPT NUMBER  1, TIME INCREMENT   10.0    
 
	SYMMETRIC NEW DIRECT SPARSE SOLVER RUNNING ON
 	1 HOST x 1 MPI RANK PER HOST x 8 THREADS PER RANK
        NUMBER OF EQUATIONS:  129123
        NUMBER OF RHS:        1
        NUMBER OF FLOPS:      5.699e+10
        SOLVER ELAPSED TIME:  552ms

               CONVERGENCE CHECKS FOR EQUILIBRIUM ITERATION     1


 AVERAGE FORCE                      0.877       TIME AVG. FORCE       0.487    
 LARGEST SCALED RESIDUAL FORCE     -4.445E-07   AT NODE       2259   DOF  2
   INSTANCE: NDBR15-M-1                                                                      
  CORRESPONDING RESIDUAL FORCE     -4.445E-07
 LARGEST INCREMENT OF DISP.         1.800E-05   AT NODE         21   DOF  2
   INSTANCE: NDBR15-M-1                                                                      
 LARGEST CORRECTION TO DISP.        1.887E-10   AT NODE        432   DOF  2
   INSTANCE: NDBR15-M-1                                                                      
          THE FORCE     EQUILIBRIUM EQUATIONS HAVE CONVERGED

 ITERATION SUMMARY FOR THE INCREMENT:   1 TOTAL ITERATIONS, OF WHICH
   0 ARE SEVERE DISCONTINUITY ITERATIONS AND  1 ARE EQUILIBRIUM ITERATIONS.

 TIME INCREMENT COMPLETED   10.0    ,  FRACTION OF STEP COMPLETED  9.000E-02
 STEP TIME COMPLETED        90.0    ,  TOTAL TIME COMPLETED         90.0    


  INCREMENT    10 STARTS. ATTEMPT NUMBER  1, TIME INCREMENT   10.0    
 
	SYMMETRIC NEW DIRECT SPARSE SOLVER RUNNING ON
 	1 HOST x 1 MPI RANK PER HOST x 8 THREADS PER RANK
        NUMBER OF EQUATIONS:  129123
        NUMBER OF RHS:        1
        NUMBER OF FLOPS:      5.699e+10
        SOLVER ELAPSED TIME:  551ms

               CONVERGENCE CHECKS FOR EQUILIBRIUM ITERATION     1


 AVERAGE FORCE                      0.974       TIME AVG. FORCE       0.535    
 LARGEST SCALED RESIDUAL FORCE     -4.980E-07   AT NODE       2259   DOF  2
   INSTANCE: NDBR15-M-1                                                                      
  CORRESPONDING RESIDUAL FORCE     -4.980E-07
 LARGEST INCREMENT OF DISP.         1.800E-05   AT NODE         21   DOF  2
   INSTANCE: NDBR15-M-1                                                                      
 LARGEST CORRECTION TO DISP.        1.887E-10   AT NODE        432   DOF  2
   INSTANCE: NDBR15-M-1                                                                      
          THE FORCE     EQUILIBRIUM EQUATIONS HAVE CONVERGED

 ITERATION SUMMARY FOR THE INCREMENT:   1 TOTAL ITERATIONS, OF WHICH
   0 ARE SEVERE DISCONTINUITY ITERATIONS AND  1 ARE EQUILIBRIUM ITERATIONS.

 TIME INCREMENT COMPLETED   10.0    ,  FRACTION OF STEP COMPLETED  0.100    
 STEP TIME COMPLETED        100.    ,  TOTAL TIME COMPLETED         100.    


  INCREMENT    11 STARTS. ATTEMPT NUMBER  1, TIME INCREMENT   10.0    
 
	SYMMETRIC NEW DIRECT SPARSE SOLVER RUNNING ON
 	1 HOST x 1 MPI RANK PER HOST x 8 THREADS PER RANK
        NUMBER OF EQUATIONS:  129123
        NUMBER OF RHS:        1
        NUMBER OF FLOPS:      5.699e+10
        SOLVER ELAPSED TIME:  577ms

               CONVERGENCE CHECKS FOR EQUILIBRIUM ITERATION     1


 AVERAGE FORCE                       1.07       TIME AVG. FORCE       0.584    
 LARGEST SCALED RESIDUAL FORCE     -5.515E-07   AT NODE       2259   DOF  2
   INSTANCE: NDBR15-M-1                                                                      
  CORRESPONDING RESIDUAL FORCE     -5.515E-07
 LARGEST INCREMENT OF DISP.         1.800E-05   AT NODE         21   DOF  2
   INSTANCE: NDBR15-M-1                                                                      
 LARGEST CORRECTION TO DISP.        1.887E-10   AT NODE        432   DOF  2
   INSTANCE: NDBR15-M-1                                                                      
          THE FORCE     EQUILIBRIUM EQUATIONS HAVE CONVERGED

 ITERATION SUMMARY FOR THE INCREMENT:   1 TOTAL ITERATIONS, OF WHICH
   0 ARE SEVERE DISCONTINUITY ITERATIONS AND  1 ARE EQUILIBRIUM ITERATIONS.

 TIME INCREMENT COMPLETED   10.0    ,  FRACTION OF STEP COMPLETED  0.110    
 STEP TIME COMPLETED        110.    ,  TOTAL TIME COMPLETED         110.    


  INCREMENT    12 STARTS. ATTEMPT NUMBER  1, TIME INCREMENT   10.0    
 
	SYMMETRIC NEW DIRECT SPARSE SOLVER RUNNING ON
 	1 HOST x 1 MPI RANK PER HOST x 8 THREADS PER RANK
        NUMBER OF EQUATIONS:  129123
        NUMBER OF RHS:        1
        NUMBER OF FLOPS:      5.699e+10
        SOLVER ELAPSED TIME:  530ms

               CONVERGENCE CHECKS FOR EQUILIBRIUM ITERATION     1


 AVERAGE FORCE                       1.17       TIME AVG. FORCE       0.633    
 LARGEST SCALED RESIDUAL FORCE     -6.050E-07   AT NODE       2259   DOF  2
   INSTANCE: NDBR15-M-1                                                                      
  CORRESPONDING RESIDUAL FORCE     -6.050E-07
 LARGEST INCREMENT OF DISP.         1.800E-05   AT NODE         21   DOF  2
   INSTANCE: NDBR15-M-1                                                                      
 LARGEST CORRECTION TO DISP.        1.886E-10   AT NODE        432   DOF  2
   INSTANCE: NDBR15-M-1                                                                      
          THE FORCE     EQUILIBRIUM EQUATIONS HAVE CONVERGED

 ITERATION SUMMARY FOR THE INCREMENT:   1 TOTAL ITERATIONS, OF WHICH
   0 ARE SEVERE DISCONTINUITY ITERATIONS AND  1 ARE EQUILIBRIUM ITERATIONS.

 TIME INCREMENT COMPLETED   10.0    ,  FRACTION OF STEP COMPLETED  0.120    
 STEP TIME COMPLETED        120.    ,  TOTAL TIME COMPLETED         120.    


  INCREMENT    13 STARTS. ATTEMPT NUMBER  1, TIME INCREMENT   10.0    
 
	SYMMETRIC NEW DIRECT SPARSE SOLVER RUNNING ON
 	1 HOST x 1 MPI RANK PER HOST x 8 THREADS PER RANK
        NUMBER OF EQUATIONS:  129123
        NUMBER OF RHS:        1
        NUMBER OF FLOPS:      5.699e+10
        SOLVER ELAPSED TIME:  552ms

               CONVERGENCE CHECKS FOR EQUILIBRIUM ITERATION     1


 AVERAGE FORCE                       1.27       TIME AVG. FORCE       0.681    
 LARGEST SCALED RESIDUAL FORCE     -6.585E-07   AT NODE       2259   DOF  2
   INSTANCE: NDBR15-M-1                                                                      
  CORRESPONDING RESIDUAL FORCE     -6.585E-07
 LARGEST INCREMENT OF DISP.         1.800E-05   AT NODE         21   DOF  2
   INSTANCE: NDBR15-M-1                                                                      
 LARGEST CORRECTION TO DISP.        1.886E-10   AT NODE        432   DOF  2
   INSTANCE: NDBR15-M-1                                                                      
          THE FORCE     EQUILIBRIUM EQUATIONS HAVE CONVERGED

 ITERATION SUMMARY FOR THE INCREMENT:   1 TOTAL ITERATIONS, OF WHICH
   0 ARE SEVERE DISCONTINUITY ITERATIONS AND  1 ARE EQUILIBRIUM ITERATIONS.

 TIME INCREMENT COMPLETED   10.0    ,  FRACTION OF STEP COMPLETED  0.130    
 STEP TIME COMPLETED        130.    ,  TOTAL TIME COMPLETED         130.    


  INCREMENT    14 STARTS. ATTEMPT NUMBER  1, TIME INCREMENT   10.0    
 
	SYMMETRIC NEW DIRECT SPARSE SOLVER RUNNING ON
 	1 HOST x 1 MPI RANK PER HOST x 8 THREADS PER RANK
        NUMBER OF EQUATIONS:  129123
        NUMBER OF RHS:        1
        NUMBER OF FLOPS:      5.699e+10
        SOLVER ELAPSED TIME:  559ms

               CONVERGENCE CHECKS FOR EQUILIBRIUM ITERATION     1


 AVERAGE FORCE                       1.36       TIME AVG. FORCE       0.730    
 LARGEST SCALED RESIDUAL FORCE     -7.120E-07   AT NODE       2259   DOF  2
   INSTANCE: NDBR15-M-1                                                                      
  CORRESPONDING RESIDUAL FORCE     -7.120E-07
 LARGEST INCREMENT OF DISP.         1.800E-05   AT NODE         21   DOF  2
   INSTANCE: NDBR15-M-1                                                                      
 LARGEST CORRECTION TO DISP.        1.886E-10   AT NODE        432   DOF  2
   INSTANCE: NDBR15-M-1                                                                      
          THE FORCE     EQUILIBRIUM EQUATIONS HAVE CONVERGED

 ITERATION SUMMARY FOR THE INCREMENT:   1 TOTAL ITERATIONS, OF WHICH
   0 ARE SEVERE DISCONTINUITY ITERATIONS AND  1 ARE EQUILIBRIUM ITERATIONS.

 TIME INCREMENT COMPLETED   10.0    ,  FRACTION OF STEP COMPLETED  0.140    
 STEP TIME COMPLETED        140.    ,  TOTAL TIME COMPLETED         140.    


  INCREMENT    15 STARTS. ATTEMPT NUMBER  1, TIME INCREMENT   10.0    
 
	SYMMETRIC NEW DIRECT SPARSE SOLVER RUNNING ON
 	1 HOST x 1 MPI RANK PER HOST x 8 THREADS PER RANK
        NUMBER OF EQUATIONS:  129123
        NUMBER OF RHS:        1
        NUMBER OF FLOPS:      5.699e+10
        SOLVER ELAPSED TIME:  551ms

               CONVERGENCE CHECKS FOR EQUILIBRIUM ITERATION     1


 AVERAGE FORCE                       1.46       TIME AVG. FORCE       0.779    
 LARGEST SCALED RESIDUAL FORCE     -7.654E-07   AT NODE       2259   DOF  2
   INSTANCE: NDBR15-M-1                                                                      
  CORRESPONDING RESIDUAL FORCE     -7.654E-07
 LARGEST INCREMENT OF DISP.         1.800E-05   AT NODE         21   DOF  2
   INSTANCE: NDBR15-M-1                                                                      
 LARGEST CORRECTION TO DISP.        1.886E-10   AT NODE        432   DOF  2
   INSTANCE: NDBR15-M-1                                                                      
          THE FORCE     EQUILIBRIUM EQUATIONS HAVE CONVERGED

 ITERATION SUMMARY FOR THE INCREMENT:   1 TOTAL ITERATIONS, OF WHICH
   0 ARE SEVERE DISCONTINUITY ITERATIONS AND  1 ARE EQUILIBRIUM ITERATIONS.

 TIME INCREMENT COMPLETED   10.0    ,  FRACTION OF STEP COMPLETED  0.150    
 STEP TIME COMPLETED        150.    ,  TOTAL TIME COMPLETED         150.    


  INCREMENT    16 STARTS. ATTEMPT NUMBER  1, TIME INCREMENT   10.0    
 
	SYMMETRIC NEW DIRECT SPARSE SOLVER RUNNING ON
 	1 HOST x 1 MPI RANK PER HOST x 8 THREADS PER RANK
        NUMBER OF EQUATIONS:  129123
        NUMBER OF RHS:        1
        NUMBER OF FLOPS:      5.699e+10
        SOLVER ELAPSED TIME:  551ms

               CONVERGENCE CHECKS FOR EQUILIBRIUM ITERATION     1


 AVERAGE FORCE                       1.56       TIME AVG. FORCE       0.828    
 LARGEST SCALED RESIDUAL FORCE     -8.187E-07   AT NODE       2259   DOF  2
   INSTANCE: NDBR15-M-1                                                                      
  CORRESPONDING RESIDUAL FORCE     -8.187E-07
 LARGEST INCREMENT OF DISP.         1.800E-05   AT NODE         21   DOF  2
   INSTANCE: NDBR15-M-1                                                                      
 LARGEST CORRECTION TO DISP.        1.886E-10   AT NODE        432   DOF  2
   INSTANCE: NDBR15-M-1                                                                      
          THE FORCE     EQUILIBRIUM EQUATIONS HAVE CONVERGED

 ITERATION SUMMARY FOR THE INCREMENT:   1 TOTAL ITERATIONS, OF WHICH
   0 ARE SEVERE DISCONTINUITY ITERATIONS AND  1 ARE EQUILIBRIUM ITERATIONS.

 TIME INCREMENT COMPLETED   10.0    ,  FRACTION OF STEP COMPLETED  0.160    
 STEP TIME COMPLETED        160.    ,  TOTAL TIME COMPLETED         160.    


  INCREMENT    17 STARTS. ATTEMPT NUMBER  1, TIME INCREMENT   10.0    
 
	SYMMETRIC NEW DIRECT SPARSE SOLVER RUNNING ON
 	1 HOST x 1 MPI RANK PER HOST x 8 THREADS PER RANK
        NUMBER OF EQUATIONS:  129123
        NUMBER OF RHS:        1
        NUMBER OF FLOPS:      5.699e+10
        SOLVER ELAPSED TIME:  551ms

               CONVERGENCE CHECKS FOR EQUILIBRIUM ITERATION     1


 AVERAGE FORCE                       1.65       TIME AVG. FORCE       0.876    
 LARGEST SCALED RESIDUAL FORCE     -8.721E-07   AT NODE       2259   DOF  2
   INSTANCE: NDBR15-M-1                                                                      
  CORRESPONDING RESIDUAL FORCE     -8.721E-07
 LARGEST INCREMENT OF DISP.         1.800E-05   AT NODE         21   DOF  2
   INSTANCE: NDBR15-M-1                                                                      
 LARGEST CORRECTION TO DISP.        1.885E-10   AT NODE        432   DOF  2
   INSTANCE: NDBR15-M-1                                                                      
          THE FORCE     EQUILIBRIUM EQUATIONS HAVE CONVERGED

 ITERATION SUMMARY FOR THE INCREMENT:   1 TOTAL ITERATIONS, OF WHICH
   0 ARE SEVERE DISCONTINUITY ITERATIONS AND  1 ARE EQUILIBRIUM ITERATIONS.

 TIME INCREMENT COMPLETED   10.0    ,  FRACTION OF STEP COMPLETED  0.170    
 STEP TIME COMPLETED        170.    ,  TOTAL TIME COMPLETED         170.    


  INCREMENT    18 STARTS. ATTEMPT NUMBER  1, TIME INCREMENT   10.0    
 
	SYMMETRIC NEW DIRECT SPARSE SOLVER RUNNING ON
 	1 HOST x 1 MPI RANK PER HOST x 8 THREADS PER RANK
        NUMBER OF EQUATIONS:  129123
        NUMBER OF RHS:        1
        NUMBER OF FLOPS:      5.699e+10
        SOLVER ELAPSED TIME:  552ms

               CONVERGENCE CHECKS FOR EQUILIBRIUM ITERATION     1


 AVERAGE FORCE                       1.75       TIME AVG. FORCE       0.925    
 LARGEST SCALED RESIDUAL FORCE     -9.254E-07   AT NODE       2259   DOF  2
   INSTANCE: NDBR15-M-1                                                                      
  CORRESPONDING RESIDUAL FORCE     -9.254E-07
 LARGEST INCREMENT OF DISP.         1.800E-05   AT NODE         21   DOF  2
   INSTANCE: NDBR15-M-1                                                                      
 LARGEST CORRECTION TO DISP.        1.885E-10   AT NODE        432   DOF  2
   INSTANCE: NDBR15-M-1                                                                      
          THE FORCE     EQUILIBRIUM EQUATIONS HAVE CONVERGED

 ITERATION SUMMARY FOR THE INCREMENT:   1 TOTAL ITERATIONS, OF WHICH
   0 ARE SEVERE DISCONTINUITY ITERATIONS AND  1 ARE EQUILIBRIUM ITERATIONS.

 TIME INCREMENT COMPLETED   10.0    ,  FRACTION OF STEP COMPLETED  0.180    
 STEP TIME COMPLETED        180.    ,  TOTAL TIME COMPLETED         180.    


  INCREMENT    19 STARTS. ATTEMPT NUMBER  1, TIME INCREMENT   10.0    
 
	SYMMETRIC NEW DIRECT SPARSE SOLVER RUNNING ON
 	1 HOST x 1 MPI RANK PER HOST x 8 THREADS PER RANK
        NUMBER OF EQUATIONS:  129123
        NUMBER OF RHS:        1
        NUMBER OF FLOPS:      5.699e+10
        SOLVER ELAPSED TIME:  548ms

               CONVERGENCE CHECKS FOR EQUILIBRIUM ITERATION     1


 AVERAGE FORCE                       1.85       TIME AVG. FORCE       0.974    
 LARGEST SCALED RESIDUAL FORCE     -9.787E-07   AT NODE       2259   DOF  2
   INSTANCE: NDBR15-M-1                                                                      
  CORRESPONDING RESIDUAL FORCE     -9.787E-07
 LARGEST INCREMENT OF DISP.         1.800E-05   AT NODE         21   DOF  2
   INSTANCE: NDBR15-M-1                                                                      
 LARGEST CORRECTION TO DISP.        1.885E-10   AT NODE        432   DOF  2
   INSTANCE: NDBR15-M-1                                                                      
          THE FORCE     EQUILIBRIUM EQUATIONS HAVE CONVERGED

 ITERATION SUMMARY FOR THE INCREMENT:   1 TOTAL ITERATIONS, OF WHICH
   0 ARE SEVERE DISCONTINUITY ITERATIONS AND  1 ARE EQUILIBRIUM ITERATIONS.

 TIME INCREMENT COMPLETED   10.0    ,  FRACTION OF STEP COMPLETED  0.190    
 STEP TIME COMPLETED        190.    ,  TOTAL TIME COMPLETED         190.    


  INCREMENT    20 STARTS. ATTEMPT NUMBER  1, TIME INCREMENT   10.0    
 
	SYMMETRIC NEW DIRECT SPARSE SOLVER RUNNING ON
 	1 HOST x 1 MPI RANK PER HOST x 8 THREADS PER RANK
        NUMBER OF EQUATIONS:  129123
        NUMBER OF RHS:        1
        NUMBER OF FLOPS:      5.699e+10
        SOLVER ELAPSED TIME:  551ms

               CONVERGENCE CHECKS FOR EQUILIBRIUM ITERATION     1


 AVERAGE FORCE                       1.95       TIME AVG. FORCE        1.02    
 LARGEST SCALED RESIDUAL FORCE     -1.032E-06   AT NODE       2259   DOF  2
   INSTANCE: NDBR15-M-1                                                                      
  CORRESPONDING RESIDUAL FORCE     -1.032E-06
 LARGEST INCREMENT OF DISP.         1.800E-05   AT NODE         21   DOF  2
   INSTANCE: NDBR15-M-1                                                                      
 LARGEST CORRECTION TO DISP.        1.885E-10   AT NODE        432   DOF  2
   INSTANCE: NDBR15-M-1                                                                      
          THE FORCE     EQUILIBRIUM EQUATIONS HAVE CONVERGED

 ITERATION SUMMARY FOR THE INCREMENT:   1 TOTAL ITERATIONS, OF WHICH
   0 ARE SEVERE DISCONTINUITY ITERATIONS AND  1 ARE EQUILIBRIUM ITERATIONS.

 TIME INCREMENT COMPLETED   10.0    ,  FRACTION OF STEP COMPLETED  0.200    
 STEP TIME COMPLETED        200.    ,  TOTAL TIME COMPLETED         200.    


  INCREMENT    21 STARTS. ATTEMPT NUMBER  1, TIME INCREMENT   10.0    
 
	SYMMETRIC NEW DIRECT SPARSE SOLVER RUNNING ON
 	1 HOST x 1 MPI RANK PER HOST x 8 THREADS PER RANK
        NUMBER OF EQUATIONS:  129123
        NUMBER OF RHS:        1
        NUMBER OF FLOPS:      5.699e+10
        SOLVER ELAPSED TIME:  552ms

               CONVERGENCE CHECKS FOR EQUILIBRIUM ITERATION     1


 AVERAGE FORCE                       2.04       TIME AVG. FORCE        1.07    
 LARGEST SCALED RESIDUAL FORCE     -1.085E-06   AT NODE       2259   DOF  2
   INSTANCE: NDBR15-M-1                                                                      
  CORRESPONDING RESIDUAL FORCE     -1.085E-06
 LARGEST INCREMENT OF DISP.         1.800E-05   AT NODE         21   DOF  2
   INSTANCE: NDBR15-M-1                                                                      
 LARGEST CORRECTION TO DISP.        1.885E-10   AT NODE        432   DOF  2
   INSTANCE: NDBR15-M-1                                                                      
          THE FORCE     EQUILIBRIUM EQUATIONS HAVE CONVERGED

 ITERATION SUMMARY FOR THE INCREMENT:   1 TOTAL ITERATIONS, OF WHICH
   0 ARE SEVERE DISCONTINUITY ITERATIONS AND  1 ARE EQUILIBRIUM ITERATIONS.

 TIME INCREMENT COMPLETED   10.0    ,  FRACTION OF STEP COMPLETED  0.210    
 STEP TIME COMPLETED        210.    ,  TOTAL TIME COMPLETED         210.    


  INCREMENT    22 STARTS. ATTEMPT NUMBER  1, TIME INCREMENT   10.0    
 
	SYMMETRIC NEW DIRECT SPARSE SOLVER RUNNING ON
 	1 HOST x 1 MPI RANK PER HOST x 8 THREADS PER RANK
        NUMBER OF EQUATIONS:  129123
        NUMBER OF RHS:        1
        NUMBER OF FLOPS:      5.699e+10
        SOLVER ELAPSED TIME:  556ms

               CONVERGENCE CHECKS FOR EQUILIBRIUM ITERATION     1


 AVERAGE FORCE                       2.14       TIME AVG. FORCE        1.12    
 LARGEST SCALED RESIDUAL FORCE     -1.138E-06   AT NODE       2259   DOF  2
   INSTANCE: NDBR15-M-1                                                                      
  CORRESPONDING RESIDUAL FORCE     -1.138E-06
 LARGEST INCREMENT OF DISP.         1.800E-05   AT NODE         21   DOF  2
   INSTANCE: NDBR15-M-1                                                                      
 LARGEST CORRECTION TO DISP.        1.884E-10   AT NODE        432   DOF  2
   INSTANCE: NDBR15-M-1                                                                      
          THE FORCE     EQUILIBRIUM EQUATIONS HAVE CONVERGED

 ITERATION SUMMARY FOR THE INCREMENT:   1 TOTAL ITERATIONS, OF WHICH
   0 ARE SEVERE DISCONTINUITY ITERATIONS AND  1 ARE EQUILIBRIUM ITERATIONS.

 TIME INCREMENT COMPLETED   10.0    ,  FRACTION OF STEP COMPLETED  0.220    
 STEP TIME COMPLETED        220.    ,  TOTAL TIME COMPLETED         220.    


  INCREMENT    23 STARTS. ATTEMPT NUMBER  1, TIME INCREMENT   10.0    
 
	SYMMETRIC NEW DIRECT SPARSE SOLVER RUNNING ON
 	1 HOST x 1 MPI RANK PER HOST x 8 THREADS PER RANK
        NUMBER OF EQUATIONS:  129123
        NUMBER OF RHS:        1
        NUMBER OF FLOPS:      5.699e+10
        SOLVER ELAPSED TIME:  555ms

               CONVERGENCE CHECKS FOR EQUILIBRIUM ITERATION     1


 AVERAGE FORCE                       2.24       TIME AVG. FORCE        1.17    
 LARGEST SCALED RESIDUAL FORCE     -1.192E-06   AT NODE       2259   DOF  2
   INSTANCE: NDBR15-M-1                                                                      
  CORRESPONDING RESIDUAL FORCE     -1.192E-06
 LARGEST INCREMENT OF DISP.         1.800E-05   AT NODE         21   DOF  2
   INSTANCE: NDBR15-M-1                                                                      
 LARGEST CORRECTION TO DISP.        1.884E-10   AT NODE        432   DOF  2
   INSTANCE: NDBR15-M-1                                                                      
          THE FORCE     EQUILIBRIUM EQUATIONS HAVE CONVERGED

 ITERATION SUMMARY FOR THE INCREMENT:   1 TOTAL ITERATIONS, OF WHICH
   0 ARE SEVERE DISCONTINUITY ITERATIONS AND  1 ARE EQUILIBRIUM ITERATIONS.

 TIME INCREMENT COMPLETED   10.0    ,  FRACTION OF STEP COMPLETED  0.230    
 STEP TIME COMPLETED        230.    ,  TOTAL TIME COMPLETED         230.    


  INCREMENT    24 STARTS. ATTEMPT NUMBER  1, TIME INCREMENT   10.0    
 
	SYMMETRIC NEW DIRECT SPARSE SOLVER RUNNING ON
 	1 HOST x 1 MPI RANK PER HOST x 8 THREADS PER RANK
        NUMBER OF EQUATIONS:  129123
        NUMBER OF RHS:        1
        NUMBER OF FLOPS:      5.699e+10
        SOLVER ELAPSED TIME:  548ms

               CONVERGENCE CHECKS FOR EQUILIBRIUM ITERATION     1


 AVERAGE FORCE                       2.34       TIME AVG. FORCE        1.22    
 LARGEST SCALED RESIDUAL FORCE     -1.245E-06   AT NODE       2259   DOF  2
   INSTANCE: NDBR15-M-1                                                                      
  CORRESPONDING RESIDUAL FORCE     -1.245E-06
 LARGEST INCREMENT OF DISP.         1.800E-05   AT NODE         21   DOF  2
   INSTANCE: NDBR15-M-1                                                                      
 LARGEST CORRECTION TO DISP.        1.884E-10   AT NODE        432   DOF  2
   INSTANCE: NDBR15-M-1                                                                      
          THE FORCE     EQUILIBRIUM EQUATIONS HAVE CONVERGED

 ITERATION SUMMARY FOR THE INCREMENT:   1 TOTAL ITERATIONS, OF WHICH
   0 ARE SEVERE DISCONTINUITY ITERATIONS AND  1 ARE EQUILIBRIUM ITERATIONS.

 TIME INCREMENT COMPLETED   10.0    ,  FRACTION OF STEP COMPLETED  0.240    
 STEP TIME COMPLETED        240.    ,  TOTAL TIME COMPLETED         240.    


  INCREMENT    25 STARTS. ATTEMPT NUMBER  1, TIME INCREMENT   10.0    
 
	SYMMETRIC NEW DIRECT SPARSE SOLVER RUNNING ON
 	1 HOST x 1 MPI RANK PER HOST x 8 THREADS PER RANK
        NUMBER OF EQUATIONS:  129123
        NUMBER OF RHS:        1
        NUMBER OF FLOPS:      5.699e+10
        SOLVER ELAPSED TIME:  549ms

               CONVERGENCE CHECKS FOR EQUILIBRIUM ITERATION     1


 AVERAGE FORCE                       2.43       TIME AVG. FORCE        1.27    
 LARGEST SCALED RESIDUAL FORCE     -1.298E-06   AT NODE       2259   DOF  2
   INSTANCE: NDBR15-M-1                                                                      
  CORRESPONDING RESIDUAL FORCE     -1.298E-06
 LARGEST INCREMENT OF DISP.         1.800E-05   AT NODE         21   DOF  2
   INSTANCE: NDBR15-M-1                                                                      
 LARGEST CORRECTION TO DISP.        1.884E-10   AT NODE        432   DOF  2
   INSTANCE: NDBR15-M-1                                                                      
          THE FORCE     EQUILIBRIUM EQUATIONS HAVE CONVERGED

 ITERATION SUMMARY FOR THE INCREMENT:   1 TOTAL ITERATIONS, OF WHICH
   0 ARE SEVERE DISCONTINUITY ITERATIONS AND  1 ARE EQUILIBRIUM ITERATIONS.

 TIME INCREMENT COMPLETED   10.0    ,  FRACTION OF STEP COMPLETED  0.250    
 STEP TIME COMPLETED        250.    ,  TOTAL TIME COMPLETED         250.    


  INCREMENT    26 STARTS. ATTEMPT NUMBER  1, TIME INCREMENT   10.0    
 
	SYMMETRIC NEW DIRECT SPARSE SOLVER RUNNING ON
 	1 HOST x 1 MPI RANK PER HOST x 8 THREADS PER RANK
        NUMBER OF EQUATIONS:  129123
        NUMBER OF RHS:        1
        NUMBER OF FLOPS:      5.699e+10
        SOLVER ELAPSED TIME:  550ms

               CONVERGENCE CHECKS FOR EQUILIBRIUM ITERATION     1


 AVERAGE FORCE                       2.53       TIME AVG. FORCE        1.31    
 LARGEST SCALED RESIDUAL FORCE     -1.351E-06   AT NODE       2259   DOF  2
   INSTANCE: NDBR15-M-1                                                                      
  CORRESPONDING RESIDUAL FORCE     -1.351E-06
 LARGEST INCREMENT OF DISP.         1.800E-05   AT NODE         21   DOF  2
   INSTANCE: NDBR15-M-1                                                                      
 LARGEST CORRECTION TO DISP.        1.883E-10   AT NODE        432   DOF  2
   INSTANCE: NDBR15-M-1                                                                      
          THE FORCE     EQUILIBRIUM EQUATIONS HAVE CONVERGED

 ITERATION SUMMARY FOR THE INCREMENT:   1 TOTAL ITERATIONS, OF WHICH
   0 ARE SEVERE DISCONTINUITY ITERATIONS AND  1 ARE EQUILIBRIUM ITERATIONS.

 TIME INCREMENT COMPLETED   10.0    ,  FRACTION OF STEP COMPLETED  0.260    
 STEP TIME COMPLETED        260.    ,  TOTAL TIME COMPLETED         260.    


  INCREMENT    27 STARTS. ATTEMPT NUMBER  1, TIME INCREMENT   10.0    
 
	SYMMETRIC NEW DIRECT SPARSE SOLVER RUNNING ON
 	1 HOST x 1 MPI RANK PER HOST x 8 THREADS PER RANK
        NUMBER OF EQUATIONS:  129123
        NUMBER OF RHS:        1
        NUMBER OF FLOPS:      5.699e+10
        SOLVER ELAPSED TIME:  549ms

               CONVERGENCE CHECKS FOR EQUILIBRIUM ITERATION     1


 AVERAGE FORCE                       2.63       TIME AVG. FORCE        1.36    
 LARGEST SCALED RESIDUAL FORCE     -1.404E-06   AT NODE       2259   DOF  2
   INSTANCE: NDBR15-M-1                                                                      
  CORRESPONDING RESIDUAL FORCE     -1.404E-06
 LARGEST INCREMENT OF DISP.         1.800E-05   AT NODE         21   DOF  2
   INSTANCE: NDBR15-M-1                                                                      
 LARGEST CORRECTION TO DISP.        1.883E-10   AT NODE        432   DOF  2
   INSTANCE: NDBR15-M-1                                                                      
          THE FORCE     EQUILIBRIUM EQUATIONS HAVE CONVERGED

 ITERATION SUMMARY FOR THE INCREMENT:   1 TOTAL ITERATIONS, OF WHICH
   0 ARE SEVERE DISCONTINUITY ITERATIONS AND  1 ARE EQUILIBRIUM ITERATIONS.

 TIME INCREMENT COMPLETED   10.0    ,  FRACTION OF STEP COMPLETED  0.270    
 STEP TIME COMPLETED        270.    ,  TOTAL TIME COMPLETED         270.    


  INCREMENT    28 STARTS. ATTEMPT NUMBER  1, TIME INCREMENT   10.0    
 
	SYMMETRIC NEW DIRECT SPARSE SOLVER RUNNING ON
 	1 HOST x 1 MPI RANK PER HOST x 8 THREADS PER RANK
        NUMBER OF EQUATIONS:  129123
        NUMBER OF RHS:        1
        NUMBER OF FLOPS:      5.699e+10
        SOLVER ELAPSED TIME:  548ms

               CONVERGENCE CHECKS FOR EQUILIBRIUM ITERATION     1


 AVERAGE FORCE                       2.72       TIME AVG. FORCE        1.41    
 LARGEST SCALED RESIDUAL FORCE     -2.699E-03   AT NODE      11149   DOF  1
   INSTANCE: NDBR15-M-1                                                                      
  CORRESPONDING RESIDUAL FORCE     -2.699E-03
 LARGEST INCREMENT OF DISP.         1.800E-05   AT NODE         21   DOF  2
   INSTANCE: NDBR15-M-1                                                                      
 LARGEST CORRECTION TO DISP.        1.198E-08   AT NODE      18347   DOF  2
   INSTANCE: NDBR15-M-1                                                                      
          THE FORCE     EQUILIBRIUM EQUATIONS HAVE CONVERGED

 ITERATION SUMMARY FOR THE INCREMENT:   1 TOTAL ITERATIONS, OF WHICH
   0 ARE SEVERE DISCONTINUITY ITERATIONS AND  1 ARE EQUILIBRIUM ITERATIONS.

 TIME INCREMENT COMPLETED   10.0    ,  FRACTION OF STEP COMPLETED  0.280    
 STEP TIME COMPLETED        280.    ,  TOTAL TIME COMPLETED         280.    


  INCREMENT    29 STARTS. ATTEMPT NUMBER  1, TIME INCREMENT   10.0    
 
	SYMMETRIC NEW DIRECT SPARSE SOLVER RUNNING ON
 	1 HOST x 1 MPI RANK PER HOST x 8 THREADS PER RANK
        NUMBER OF EQUATIONS:  129123
        NUMBER OF RHS:        1
        NUMBER OF FLOPS:      5.699e+10
        SOLVER ELAPSED TIME:  546ms

               CONVERGENCE CHECKS FOR EQUILIBRIUM ITERATION     1


 AVERAGE FORCE                       2.82       TIME AVG. FORCE        1.46    
 LARGEST SCALED RESIDUAL FORCE     -6.910E-03   AT NODE      11150   DOF  1
   INSTANCE: NDBR15-M-1                                                                      
  CORRESPONDING RESIDUAL FORCE     -6.910E-03
 LARGEST INCREMENT OF DISP.         1.800E-05   AT NODE         21   DOF  2
   INSTANCE: NDBR15-M-1                                                                      
 LARGEST CORRECTION TO DISP.        3.665E-08   AT NODE      18352   DOF  2
   INSTANCE: NDBR15-M-1                                                                      
          THE FORCE     EQUILIBRIUM EQUATIONS HAVE CONVERGED

 ITERATION SUMMARY FOR THE INCREMENT:   1 TOTAL ITERATIONS, OF WHICH
   0 ARE SEVERE DISCONTINUITY ITERATIONS AND  1 ARE EQUILIBRIUM ITERATIONS.

 TIME INCREMENT COMPLETED   10.0    ,  FRACTION OF STEP COMPLETED  0.290    
 STEP TIME COMPLETED        290.    ,  TOTAL TIME COMPLETED         290.    


  INCREMENT    30 STARTS. ATTEMPT NUMBER  1, TIME INCREMENT   10.0    
 
	SYMMETRIC NEW DIRECT SPARSE SOLVER RUNNING ON
 	1 HOST x 1 MPI RANK PER HOST x 8 THREADS PER RANK
        NUMBER OF EQUATIONS:  129123
        NUMBER OF RHS:        1
        NUMBER OF FLOPS:      5.699e+10
        SOLVER ELAPSED TIME:  558ms

               CONVERGENCE CHECKS FOR EQUILIBRIUM ITERATION     1


 AVERAGE FORCE                       2.92       TIME AVG. FORCE        1.51    
 LARGEST SCALED RESIDUAL FORCE      8.551E-03   AT NODE      31457   DOF  2
   INSTANCE: NDBR15-M-1                                                                      
  CORRESPONDING RESIDUAL FORCE      8.551E-03
 LARGEST INCREMENT OF DISP.         1.800E-05   AT NODE         21   DOF  2
   INSTANCE: NDBR15-M-1                                                                      
 LARGEST CORRECTION TO DISP.        4.416E-08   AT NODE      18356   DOF  2
   INSTANCE: NDBR15-M-1                                                                      
          FORCE     EQUILIBRIUM NOT ACHIEVED WITHIN TOLERANCE.
 
	SYMMETRIC NEW DIRECT SPARSE SOLVER RUNNING ON
 	1 HOST x 1 MPI RANK PER HOST x 8 THREADS PER RANK
        NUMBER OF EQUATIONS:  129123
        NUMBER OF RHS:        1
        NUMBER OF FLOPS:      5.699e+10
        SOLVER ELAPSED TIME:  548ms

               CONVERGENCE CHECKS FOR EQUILIBRIUM ITERATION     2


 AVERAGE FORCE                       2.92       TIME AVG. FORCE        1.51    
 LARGEST SCALED RESIDUAL FORCE     -1.814E-05   AT NODE      31457   DOF  2
   INSTANCE: NDBR15-M-1                                                                      
  CORRESPONDING RESIDUAL FORCE     -1.814E-05
 LARGEST INCREMENT OF DISP.         1.800E-05   AT NODE         21   DOF  2
   INSTANCE: NDBR15-M-1                                                                      
 LARGEST CORRECTION TO DISP.       -4.191E-10   AT NODE       8816   DOF  3
   INSTANCE: NDBR15-M-1                                                                      
          THE FORCE     EQUILIBRIUM EQUATIONS HAVE CONVERGED

 ITERATION SUMMARY FOR THE INCREMENT:   2 TOTAL ITERATIONS, OF WHICH
   0 ARE SEVERE DISCONTINUITY ITERATIONS AND  2 ARE EQUILIBRIUM ITERATIONS.

 TIME INCREMENT COMPLETED   10.0    ,  FRACTION OF STEP COMPLETED  0.300    
 STEP TIME COMPLETED        300.    ,  TOTAL TIME COMPLETED         300.    


  INCREMENT    31 STARTS. ATTEMPT NUMBER  1, TIME INCREMENT   10.0    
 
	SYMMETRIC NEW DIRECT SPARSE SOLVER RUNNING ON
 	1 HOST x 1 MPI RANK PER HOST x 8 THREADS PER RANK
        NUMBER OF EQUATIONS:  129123
        NUMBER OF RHS:        1
        NUMBER OF FLOPS:      5.699e+10
        SOLVER ELAPSED TIME:  549ms

               CONVERGENCE CHECKS FOR EQUILIBRIUM ITERATION     1


 AVERAGE FORCE                       3.02       TIME AVG. FORCE        1.56    
 LARGEST SCALED RESIDUAL FORCE      5.609E-03   AT NODE      25601   DOF  2
   INSTANCE: NDBR15-M-1                                                                      
  CORRESPONDING RESIDUAL FORCE      5.609E-03
 LARGEST INCREMENT OF DISP.         1.800E-05   AT NODE         21   DOF  2
   INSTANCE: NDBR15-M-1                                                                      
 LARGEST CORRECTION TO DISP.        4.573E-08   AT NODE      18359   DOF  2
   INSTANCE: NDBR15-M-1                                                                      
          THE FORCE     EQUILIBRIUM EQUATIONS HAVE CONVERGED

 ITERATION SUMMARY FOR THE INCREMENT:   1 TOTAL ITERATIONS, OF WHICH
   0 ARE SEVERE DISCONTINUITY ITERATIONS AND  1 ARE EQUILIBRIUM ITERATIONS.

 TIME INCREMENT COMPLETED   10.0    ,  FRACTION OF STEP COMPLETED  0.310    
 STEP TIME COMPLETED        310.    ,  TOTAL TIME COMPLETED         310.    


  INCREMENT    32 STARTS. ATTEMPT NUMBER  1, TIME INCREMENT   10.0    
 
	SYMMETRIC NEW DIRECT SPARSE SOLVER RUNNING ON
 	1 HOST x 1 MPI RANK PER HOST x 8 THREADS PER RANK
        NUMBER OF EQUATIONS:  129123
        NUMBER OF RHS:        1
        NUMBER OF FLOPS:      5.699e+10
        SOLVER ELAPSED TIME:  536ms

               CONVERGENCE CHECKS FOR EQUILIBRIUM ITERATION     1


 AVERAGE FORCE                       3.11       TIME AVG. FORCE        1.61    
 LARGEST SCALED RESIDUAL FORCE      9.087E-03   AT NODE      29489   DOF  2
   INSTANCE: NDBR15-M-1                                                                      
  CORRESPONDING RESIDUAL FORCE      9.087E-03
 LARGEST INCREMENT OF DISP.         1.800E-05   AT NODE         21   DOF  2
   INSTANCE: NDBR15-M-1                                                                      
 LARGEST CORRECTION TO DISP.        4.804E-08   AT NODE      18361   DOF  2
   INSTANCE: NDBR15-M-1                                                                      
          FORCE     EQUILIBRIUM NOT ACHIEVED WITHIN TOLERANCE.
 
	SYMMETRIC NEW DIRECT SPARSE SOLVER RUNNING ON
 	1 HOST x 1 MPI RANK PER HOST x 8 THREADS PER RANK
        NUMBER OF EQUATIONS:  129123
        NUMBER OF RHS:        1
        NUMBER OF FLOPS:      5.699e+10
        SOLVER ELAPSED TIME:  546ms

               CONVERGENCE CHECKS FOR EQUILIBRIUM ITERATION     2


 AVERAGE FORCE                       3.11       TIME AVG. FORCE        1.61    
 LARGEST SCALED RESIDUAL FORCE      6.336E-05   AT NODE      34127   DOF  3
   INSTANCE: NDBR15-M-1                                                                      
  CORRESPONDING RESIDUAL FORCE      6.336E-05
 LARGEST INCREMENT OF DISP.         1.800E-05   AT NODE         21   DOF  2
   INSTANCE: NDBR15-M-1                                                                      
 LARGEST CORRECTION TO DISP.        3.712E-10   AT NODE      35913   DOF  2
   INSTANCE: NDBR15-M-1                                                                      
          THE FORCE     EQUILIBRIUM EQUATIONS HAVE CONVERGED

 ITERATION SUMMARY FOR THE INCREMENT:   2 TOTAL ITERATIONS, OF WHICH
   0 ARE SEVERE DISCONTINUITY ITERATIONS AND  2 ARE EQUILIBRIUM ITERATIONS.

 TIME INCREMENT COMPLETED   10.0    ,  FRACTION OF STEP COMPLETED  0.320    
 STEP TIME COMPLETED        320.    ,  TOTAL TIME COMPLETED         320.    


  INCREMENT    33 STARTS. ATTEMPT NUMBER  1, TIME INCREMENT   10.0    
 
	SYMMETRIC NEW DIRECT SPARSE SOLVER RUNNING ON
 	1 HOST x 1 MPI RANK PER HOST x 8 THREADS PER RANK
        NUMBER OF EQUATIONS:  129123
        NUMBER OF RHS:        1
        NUMBER OF FLOPS:      5.699e+10
        SOLVER ELAPSED TIME:  548ms

               CONVERGENCE CHECKS FOR EQUILIBRIUM ITERATION     1


 AVERAGE FORCE                       3.22       TIME AVG. FORCE        1.65    
 LARGEST SCALED RESIDUAL FORCE      1.190E-02   AT NODE      15573   DOF  2
   INSTANCE: NDBR15-M-1                                                                      
  CORRESPONDING RESIDUAL FORCE      1.190E-02
 LARGEST INCREMENT OF DISP.         1.800E-05   AT NODE         21   DOF  2
   INSTANCE: NDBR15-M-1                                                                      
 LARGEST CORRECTION TO DISP.        5.534E-08   AT NODE      18363   DOF  2
   INSTANCE: NDBR15-M-1                                                                      
          FORCE     EQUILIBRIUM NOT ACHIEVED WITHIN TOLERANCE.
 
	SYMMETRIC NEW DIRECT SPARSE SOLVER RUNNING ON
 	1 HOST x 1 MPI RANK PER HOST x 8 THREADS PER RANK
        NUMBER OF EQUATIONS:  129123
        NUMBER OF RHS:        1
        NUMBER OF FLOPS:      5.699e+10
        SOLVER ELAPSED TIME:  548ms

               CONVERGENCE CHECKS FOR EQUILIBRIUM ITERATION     2


 AVERAGE FORCE                       3.22       TIME AVG. FORCE        1.65    
 LARGEST SCALED RESIDUAL FORCE     -2.130E-04   AT NODE      38587   DOF  2
   INSTANCE: NDBR15-M-1                                                                      
  CORRESPONDING RESIDUAL FORCE     -2.130E-04
 LARGEST INCREMENT OF DISP.         1.800E-05   AT NODE         21   DOF  2
   INSTANCE: NDBR15-M-1                                                                      
 LARGEST CORRECTION TO DISP.        7.203E-10   AT NODE      15573   DOF  2
   INSTANCE: NDBR15-M-1                                                                      
          THE FORCE     EQUILIBRIUM EQUATIONS HAVE CONVERGED

 ITERATION SUMMARY FOR THE INCREMENT:   2 TOTAL ITERATIONS, OF WHICH
   0 ARE SEVERE DISCONTINUITY ITERATIONS AND  2 ARE EQUILIBRIUM ITERATIONS.

 TIME INCREMENT COMPLETED   10.0    ,  FRACTION OF STEP COMPLETED  0.330    
 STEP TIME COMPLETED        330.    ,  TOTAL TIME COMPLETED         330.    


  INCREMENT    34 STARTS. ATTEMPT NUMBER  1, TIME INCREMENT   10.0    
 
	SYMMETRIC NEW DIRECT SPARSE SOLVER RUNNING ON
 	1 HOST x 1 MPI RANK PER HOST x 8 THREADS PER RANK
        NUMBER OF EQUATIONS:  129123
        NUMBER OF RHS:        1
        NUMBER OF FLOPS:      5.699e+10
        SOLVER ELAPSED TIME:  556ms

               CONVERGENCE CHECKS FOR EQUILIBRIUM ITERATION     1


 AVERAGE FORCE                       3.31       TIME AVG. FORCE        1.70    
 LARGEST SCALED RESIDUAL FORCE      1.130E-02   AT NODE      31291   DOF  2
   INSTANCE: NDBR15-M-1                                                                      
  CORRESPONDING RESIDUAL FORCE      1.130E-02
 LARGEST INCREMENT OF DISP.         1.800E-05   AT NODE         21   DOF  2
   INSTANCE: NDBR15-M-1                                                                      
 LARGEST CORRECTION TO DISP.        6.540E-08   AT NODE      18441   DOF  2
   INSTANCE: NDBR15-M-1                                                                      
          FORCE     EQUILIBRIUM NOT ACHIEVED WITHIN TOLERANCE.
 
	SYMMETRIC NEW DIRECT SPARSE SOLVER RUNNING ON
 	1 HOST x 1 MPI RANK PER HOST x 8 THREADS PER RANK
        NUMBER OF EQUATIONS:  129123
        NUMBER OF RHS:        1
        NUMBER OF FLOPS:      5.699e+10
        SOLVER ELAPSED TIME:  546ms

               CONVERGENCE CHECKS FOR EQUILIBRIUM ITERATION     2


 AVERAGE FORCE                       3.31       TIME AVG. FORCE        1.70    
 LARGEST SCALED RESIDUAL FORCE      8.070E-05   AT NODE      31790   DOF  3
   INSTANCE: NDBR15-M-1                                                                      
  CORRESPONDING RESIDUAL FORCE      8.070E-05
 LARGEST INCREMENT OF DISP.         1.800E-05   AT NODE         21   DOF  2
   INSTANCE: NDBR15-M-1                                                                      
 LARGEST CORRECTION TO DISP.       -8.272E-10   AT NODE      18032   DOF  3
   INSTANCE: NDBR15-M-1                                                                      
          THE FORCE     EQUILIBRIUM EQUATIONS HAVE CONVERGED

 ITERATION SUMMARY FOR THE INCREMENT:   2 TOTAL ITERATIONS, OF WHICH
   0 ARE SEVERE DISCONTINUITY ITERATIONS AND  2 ARE EQUILIBRIUM ITERATIONS.

 TIME INCREMENT COMPLETED   10.0    ,  FRACTION OF STEP COMPLETED  0.340    
 STEP TIME COMPLETED        340.    ,  TOTAL TIME COMPLETED         340.    


  INCREMENT    35 STARTS. ATTEMPT NUMBER  1, TIME INCREMENT   10.0    
 
	SYMMETRIC NEW DIRECT SPARSE SOLVER RUNNING ON
 	1 HOST x 1 MPI RANK PER HOST x 8 THREADS PER RANK
        NUMBER OF EQUATIONS:  129123
        NUMBER OF RHS:        1
        NUMBER OF FLOPS:      5.699e+10
        SOLVER ELAPSED TIME:  552ms

               CONVERGENCE CHECKS FOR EQUILIBRIUM ITERATION     1


 AVERAGE FORCE                       3.40       TIME AVG. FORCE        1.75    
 LARGEST SCALED RESIDUAL FORCE     -1.455E-02   AT NODE      31671   DOF  2
   INSTANCE: NDBR15-M-1                                                                      
  CORRESPONDING RESIDUAL FORCE     -1.455E-02
 LARGEST INCREMENT OF DISP.         1.800E-05   AT NODE         21   DOF  2
   INSTANCE: NDBR15-M-1                                                                      
 LARGEST CORRECTION TO DISP.        8.091E-08   AT NODE      38361   DOF  2
   INSTANCE: NDBR15-M-1                                                                      
          FORCE     EQUILIBRIUM NOT ACHIEVED WITHIN TOLERANCE.
 
	SYMMETRIC NEW DIRECT SPARSE SOLVER RUNNING ON
 	1 HOST x 1 MPI RANK PER HOST x 8 THREADS PER RANK
        NUMBER OF EQUATIONS:  129123
        NUMBER OF RHS:        1
        NUMBER OF FLOPS:      5.699e+10
        SOLVER ELAPSED TIME:  573ms

               CONVERGENCE CHECKS FOR EQUILIBRIUM ITERATION     2


 AVERAGE FORCE                       3.40       TIME AVG. FORCE        1.75    
 LARGEST SCALED RESIDUAL FORCE      2.943E-04   AT NODE      37471   DOF  2
   INSTANCE: NDBR15-M-1                                                                      
  CORRESPONDING RESIDUAL FORCE      2.943E-04
 LARGEST INCREMENT OF DISP.         1.800E-05   AT NODE         21   DOF  2
   INSTANCE: NDBR15-M-1                                                                      
 LARGEST CORRECTION TO DISP.       -8.087E-10   AT NODE      11498   DOF  3
   INSTANCE: NDBR15-M-1                                                                      
          THE FORCE     EQUILIBRIUM EQUATIONS HAVE CONVERGED

 ITERATION SUMMARY FOR THE INCREMENT:   2 TOTAL ITERATIONS, OF WHICH
   0 ARE SEVERE DISCONTINUITY ITERATIONS AND  2 ARE EQUILIBRIUM ITERATIONS.

 TIME INCREMENT COMPLETED   10.0    ,  FRACTION OF STEP COMPLETED  0.350    
 STEP TIME COMPLETED        350.    ,  TOTAL TIME COMPLETED         350.    


  INCREMENT    36 STARTS. ATTEMPT NUMBER  1, TIME INCREMENT   10.0    
 
	SYMMETRIC NEW DIRECT SPARSE SOLVER RUNNING ON
 	1 HOST x 1 MPI RANK PER HOST x 8 THREADS PER RANK
        NUMBER OF EQUATIONS:  129123
        NUMBER OF RHS:        1
        NUMBER OF FLOPS:      5.699e+10
        SOLVER ELAPSED TIME:  555ms

               CONVERGENCE CHECKS FOR EQUILIBRIUM ITERATION     1


 AVERAGE FORCE                       3.48       TIME AVG. FORCE        1.80    
 LARGEST SCALED RESIDUAL FORCE     -1.823E-02   AT NODE      18026   DOF  3
   INSTANCE: NDBR15-M-1                                                                      
  CORRESPONDING RESIDUAL FORCE     -1.823E-02
 LARGEST INCREMENT OF DISP.         1.800E-05   AT NODE         21   DOF  2
   INSTANCE: NDBR15-M-1                                                                      
 LARGEST CORRECTION TO DISP.        1.141E-07   AT NODE      14305   DOF  2
   INSTANCE: NDBR15-M-1                                                                      
          FORCE     EQUILIBRIUM NOT ACHIEVED WITHIN TOLERANCE.
 
	SYMMETRIC NEW DIRECT SPARSE SOLVER RUNNING ON
 	1 HOST x 1 MPI RANK PER HOST x 8 THREADS PER RANK
        NUMBER OF EQUATIONS:  129123
        NUMBER OF RHS:        1
        NUMBER OF FLOPS:      5.699e+10
        SOLVER ELAPSED TIME:  558ms

               CONVERGENCE CHECKS FOR EQUILIBRIUM ITERATION     2


 AVERAGE FORCE                       3.48       TIME AVG. FORCE        1.80    
 LARGEST SCALED RESIDUAL FORCE      5.410E-04   AT NODE      11014   DOF  3
   INSTANCE: NDBR15-M-1                                                                      
  CORRESPONDING RESIDUAL FORCE      5.410E-04
 LARGEST INCREMENT OF DISP.         1.800E-05   AT NODE         21   DOF  2
   INSTANCE: NDBR15-M-1                                                                      
 LARGEST CORRECTION TO DISP.        2.434E-09   AT NODE      13487   DOF  2
   INSTANCE: NDBR15-M-1                                                                      
          THE FORCE     EQUILIBRIUM EQUATIONS HAVE CONVERGED

 ITERATION SUMMARY FOR THE INCREMENT:   2 TOTAL ITERATIONS, OF WHICH
   0 ARE SEVERE DISCONTINUITY ITERATIONS AND  2 ARE EQUILIBRIUM ITERATIONS.

 TIME INCREMENT COMPLETED   10.0    ,  FRACTION OF STEP COMPLETED  0.360    
 STEP TIME COMPLETED        360.    ,  TOTAL TIME COMPLETED         360.    


  INCREMENT    37 STARTS. ATTEMPT NUMBER  1, TIME INCREMENT   10.0    
 
	SYMMETRIC NEW DIRECT SPARSE SOLVER RUNNING ON
 	1 HOST x 1 MPI RANK PER HOST x 8 THREADS PER RANK
        NUMBER OF EQUATIONS:  129123
        NUMBER OF RHS:        1
        NUMBER OF FLOPS:      5.699e+10
        SOLVER ELAPSED TIME:  558ms

               CONVERGENCE CHECKS FOR EQUILIBRIUM ITERATION     1


 AVERAGE FORCE                       3.58       TIME AVG. FORCE        1.85    
 LARGEST SCALED RESIDUAL FORCE     -5.639E-02   AT NODE      11432   DOF  3
   INSTANCE: NDBR15-M-1                                                                      
  CORRESPONDING RESIDUAL FORCE     -5.639E-02
 LARGEST INCREMENT OF DISP.         1.800E-05   AT NODE         21   DOF  2
   INSTANCE: NDBR15-M-1                                                                      
 LARGEST CORRECTION TO DISP.        1.755E-07   AT NODE      14365   DOF  2
   INSTANCE: NDBR15-M-1                                                                      
          FORCE     EQUILIBRIUM NOT ACHIEVED WITHIN TOLERANCE.
 
	SYMMETRIC NEW DIRECT SPARSE SOLVER RUNNING ON
 	1 HOST x 1 MPI RANK PER HOST x 8 THREADS PER RANK
        NUMBER OF EQUATIONS:  129123
        NUMBER OF RHS:        1
        NUMBER OF FLOPS:      5.699e+10
        SOLVER ELAPSED TIME:  549ms

               CONVERGENCE CHECKS FOR EQUILIBRIUM ITERATION     2


 AVERAGE FORCE                       3.58       TIME AVG. FORCE        1.85    
 LARGEST SCALED RESIDUAL FORCE      1.619E-03   AT NODE      33681   DOF  2
   INSTANCE: NDBR15-M-1                                                                      
  CORRESPONDING RESIDUAL FORCE      1.619E-03
 LARGEST INCREMENT OF DISP.         1.800E-05   AT NODE         21   DOF  2
   INSTANCE: NDBR15-M-1                                                                      
 LARGEST CORRECTION TO DISP.        5.939E-09   AT NODE      13796   DOF  2
   INSTANCE: NDBR15-M-1                                                                      
          THE FORCE     EQUILIBRIUM EQUATIONS HAVE CONVERGED

 ITERATION SUMMARY FOR THE INCREMENT:   2 TOTAL ITERATIONS, OF WHICH
   0 ARE SEVERE DISCONTINUITY ITERATIONS AND  2 ARE EQUILIBRIUM ITERATIONS.

 TIME INCREMENT COMPLETED   10.0    ,  FRACTION OF STEP COMPLETED  0.370    
 STEP TIME COMPLETED        370.    ,  TOTAL TIME COMPLETED         370.    


  INCREMENT    38 STARTS. ATTEMPT NUMBER  1, TIME INCREMENT   10.0    
 
	SYMMETRIC NEW DIRECT SPARSE SOLVER RUNNING ON
 	1 HOST x 1 MPI RANK PER HOST x 8 THREADS PER RANK
        NUMBER OF EQUATIONS:  129123
        NUMBER OF RHS:        1
        NUMBER OF FLOPS:      5.699e+10
        SOLVER ELAPSED TIME:  549ms

               CONVERGENCE CHECKS FOR EQUILIBRIUM ITERATION     1


 AVERAGE FORCE                       3.68       TIME AVG. FORCE        1.90    
 LARGEST SCALED RESIDUAL FORCE     -6.058E-02   AT NODE      18029   DOF  3
   INSTANCE: NDBR15-M-1                                                                      
  CORRESPONDING RESIDUAL FORCE     -6.058E-02
 LARGEST INCREMENT OF DISP.         1.800E-05   AT NODE         21   DOF  2
   INSTANCE: NDBR15-M-1                                                                      
 LARGEST CORRECTION TO DISP.        4.597E-07   AT NODE      14508   DOF  2
   INSTANCE: NDBR15-M-1                                                                      
          FORCE     EQUILIBRIUM NOT ACHIEVED WITHIN TOLERANCE.
 
	SYMMETRIC NEW DIRECT SPARSE SOLVER RUNNING ON
 	1 HOST x 1 MPI RANK PER HOST x 8 THREADS PER RANK
        NUMBER OF EQUATIONS:  129123
        NUMBER OF RHS:        1
        NUMBER OF FLOPS:      5.699e+10
        SOLVER ELAPSED TIME:  546ms

               CONVERGENCE CHECKS FOR EQUILIBRIUM ITERATION     2


 AVERAGE FORCE                       3.68       TIME AVG. FORCE        1.90    
 LARGEST SCALED RESIDUAL FORCE      3.008E-03   AT NODE      29640   DOF  2
   INSTANCE: NDBR15-M-1                                                                      
  CORRESPONDING RESIDUAL FORCE      3.008E-03
 LARGEST INCREMENT OF DISP.         1.800E-05   AT NODE         21   DOF  2
   INSTANCE: NDBR15-M-1                                                                      
 LARGEST CORRECTION TO DISP.        1.875E-08   AT NODE      13666   DOF  2
   INSTANCE: NDBR15-M-1                                                                      
          THE FORCE     EQUILIBRIUM EQUATIONS HAVE CONVERGED

 ITERATION SUMMARY FOR THE INCREMENT:   2 TOTAL ITERATIONS, OF WHICH
   0 ARE SEVERE DISCONTINUITY ITERATIONS AND  2 ARE EQUILIBRIUM ITERATIONS.

 TIME INCREMENT COMPLETED   10.0    ,  FRACTION OF STEP COMPLETED  0.380    
 STEP TIME COMPLETED        380.    ,  TOTAL TIME COMPLETED         380.    


  INCREMENT    39 STARTS. ATTEMPT NUMBER  1, TIME INCREMENT   10.0    
 
	SYMMETRIC NEW DIRECT SPARSE SOLVER RUNNING ON
 	1 HOST x 1 MPI RANK PER HOST x 8 THREADS PER RANK
        NUMBER OF EQUATIONS:  129123
        NUMBER OF RHS:        1
        NUMBER OF FLOPS:      5.699e+10
        SOLVER ELAPSED TIME:  533ms

               CONVERGENCE CHECKS FOR EQUILIBRIUM ITERATION     1


 AVERAGE FORCE                       3.75       TIME AVG. FORCE        1.94    
 LARGEST SCALED RESIDUAL FORCE     -8.441E-02   AT NODE      18022   DOF  3
   INSTANCE: NDBR15-M-1                                                                      
  CORRESPONDING RESIDUAL FORCE     -8.441E-02
 LARGEST INCREMENT OF DISP.         1.800E-05   AT NODE         21   DOF  2
   INSTANCE: NDBR15-M-1                                                                      
 LARGEST CORRECTION TO DISP.        6.517E-07   AT NODE      16635   DOF  2
   INSTANCE: NDBR15-M-1                                                                      
          FORCE     EQUILIBRIUM NOT ACHIEVED WITHIN TOLERANCE.
 
	SYMMETRIC NEW DIRECT SPARSE SOLVER RUNNING ON
 	1 HOST x 1 MPI RANK PER HOST x 8 THREADS PER RANK
        NUMBER OF EQUATIONS:  129123
        NUMBER OF RHS:        1
        NUMBER OF FLOPS:      5.699e+10
        SOLVER ELAPSED TIME:  548ms

               CONVERGENCE CHECKS FOR EQUILIBRIUM ITERATION     2


 AVERAGE FORCE                       3.76       TIME AVG. FORCE        1.94    
 LARGEST SCALED RESIDUAL FORCE      7.466E-03   AT NODE      11189   DOF  3
   INSTANCE: NDBR15-M-1                                                                      
  CORRESPONDING RESIDUAL FORCE      7.466E-03
 LARGEST INCREMENT OF DISP.         1.800E-05   AT NODE         21   DOF  2
   INSTANCE: NDBR15-M-1                                                                      
 LARGEST CORRECTION TO DISP.        4.184E-08   AT NODE      13645   DOF  2
   INSTANCE: NDBR15-M-1                                                                      
          THE FORCE     EQUILIBRIUM EQUATIONS HAVE CONVERGED

 ITERATION SUMMARY FOR THE INCREMENT:   2 TOTAL ITERATIONS, OF WHICH
   0 ARE SEVERE DISCONTINUITY ITERATIONS AND  2 ARE EQUILIBRIUM ITERATIONS.

 TIME INCREMENT COMPLETED   10.0    ,  FRACTION OF STEP COMPLETED  0.390    
 STEP TIME COMPLETED        390.    ,  TOTAL TIME COMPLETED         390.    


  INCREMENT    40 STARTS. ATTEMPT NUMBER  1, TIME INCREMENT   10.0    
 
	SYMMETRIC NEW DIRECT SPARSE SOLVER RUNNING ON
 	1 HOST x 1 MPI RANK PER HOST x 8 THREADS PER RANK
        NUMBER OF EQUATIONS:  129123
        NUMBER OF RHS:        1
        NUMBER OF FLOPS:      5.699e+10
        SOLVER ELAPSED TIME:  552ms

               CONVERGENCE CHECKS FOR EQUILIBRIUM ITERATION     1


 AVERAGE FORCE                       3.82       TIME AVG. FORCE        1.99    
 LARGEST SCALED RESIDUAL FORCE     -0.381       AT NODE      18010   DOF  3
   INSTANCE: NDBR15-M-1                                                                      
  CORRESPONDING RESIDUAL FORCE     -0.381    
 LARGEST INCREMENT OF DISP.         1.800E-05   AT NODE         21   DOF  2
   INSTANCE: NDBR15-M-1                                                                      
 LARGEST CORRECTION TO DISP.        1.405E-06   AT NODE      13978   DOF  2
   INSTANCE: NDBR15-M-1                                                                      
          FORCE     EQUILIBRIUM NOT ACHIEVED WITHIN TOLERANCE.
 
	SYMMETRIC NEW DIRECT SPARSE SOLVER RUNNING ON
 	1 HOST x 1 MPI RANK PER HOST x 8 THREADS PER RANK
        NUMBER OF EQUATIONS:  129123
        NUMBER OF RHS:        1
        NUMBER OF FLOPS:      5.699e+10
        SOLVER ELAPSED TIME:  547ms

               CONVERGENCE CHECKS FOR EQUILIBRIUM ITERATION     2


 AVERAGE FORCE                       3.81       TIME AVG. FORCE        1.99    
 LARGEST SCALED RESIDUAL FORCE      0.332       AT NODE      18014   DOF  3
   INSTANCE: NDBR15-M-1                                                                      
  CORRESPONDING RESIDUAL FORCE      0.332    
 LARGEST INCREMENT OF DISP.         1.800E-05   AT NODE         21   DOF  2
   INSTANCE: NDBR15-M-1                                                                      
 LARGEST CORRECTION TO DISP.        1.290E-06   AT NODE      13572   DOF  2
   INSTANCE: NDBR15-M-1                                                                      
          FORCE     EQUILIBRIUM NOT ACHIEVED WITHIN TOLERANCE.
 
	SYMMETRIC NEW DIRECT SPARSE SOLVER RUNNING ON
 	1 HOST x 1 MPI RANK PER HOST x 8 THREADS PER RANK
        NUMBER OF EQUATIONS:  129123
        NUMBER OF RHS:        1
        NUMBER OF FLOPS:      5.699e+10
        SOLVER ELAPSED TIME:  548ms

               CONVERGENCE CHECKS FOR EQUILIBRIUM ITERATION     3


 AVERAGE FORCE                       3.82       TIME AVG. FORCE        1.99    
 LARGEST SCALED RESIDUAL FORCE      3.822E-02   AT NODE      33916   DOF  2
   INSTANCE: NDBR15-M-1                                                                      
  CORRESPONDING RESIDUAL FORCE      3.822E-02
 LARGEST INCREMENT OF DISP.         1.800E-05   AT NODE         21   DOF  2
   INSTANCE: NDBR15-M-1                                                                      
 LARGEST CORRECTION TO DISP.       -4.448E-07   AT NODE      13456   DOF  2
   INSTANCE: NDBR15-M-1                                                                      
          FORCE     EQUILIBRIUM NOT ACHIEVED WITHIN TOLERANCE.
 
	SYMMETRIC NEW DIRECT SPARSE SOLVER RUNNING ON
 	1 HOST x 1 MPI RANK PER HOST x 8 THREADS PER RANK
        NUMBER OF EQUATIONS:  129123
        NUMBER OF RHS:        1
        NUMBER OF FLOPS:      5.699e+10
        SOLVER ELAPSED TIME:  554ms

               CONVERGENCE CHECKS FOR EQUILIBRIUM ITERATION     4


 AVERAGE FORCE                       3.82       TIME AVG. FORCE        1.99    
 LARGEST SCALED RESIDUAL FORCE     -3.634E-04   AT NODE      37742   DOF  3
   INSTANCE: NDBR15-M-1                                                                      
  CORRESPONDING RESIDUAL FORCE     -3.634E-04
 LARGEST INCREMENT OF DISP.         1.800E-05   AT NODE         21   DOF  2
   INSTANCE: NDBR15-M-1                                                                      
 LARGEST CORRECTION TO DISP.        1.431E-08   AT NODE      13804   DOF  2
   INSTANCE: NDBR15-M-1                                                                      
          THE FORCE     EQUILIBRIUM EQUATIONS HAVE CONVERGED

 ITERATION SUMMARY FOR THE INCREMENT:   4 TOTAL ITERATIONS, OF WHICH
   0 ARE SEVERE DISCONTINUITY ITERATIONS AND  4 ARE EQUILIBRIUM ITERATIONS.

 TIME INCREMENT COMPLETED   10.0    ,  FRACTION OF STEP COMPLETED  0.400    
 STEP TIME COMPLETED        400.    ,  TOTAL TIME COMPLETED         400.    


  INCREMENT    41 STARTS. ATTEMPT NUMBER  1, TIME INCREMENT   10.0    
 
	SYMMETRIC NEW DIRECT SPARSE SOLVER RUNNING ON
 	1 HOST x 1 MPI RANK PER HOST x 8 THREADS PER RANK
        NUMBER OF EQUATIONS:  129123
        NUMBER OF RHS:        1
        NUMBER OF FLOPS:      5.699e+10
        SOLVER ELAPSED TIME:  554ms

               CONVERGENCE CHECKS FOR EQUILIBRIUM ITERATION     1


 AVERAGE FORCE                       3.85       TIME AVG. FORCE        2.04    
 LARGEST SCALED RESIDUAL FORCE      0.194       AT NODE      37687   DOF  2
   INSTANCE: NDBR15-M-1                                                                      
  CORRESPONDING RESIDUAL FORCE      0.194    
 LARGEST INCREMENT OF DISP.         1.800E-05   AT NODE         21   DOF  2
   INSTANCE: NDBR15-M-1                                                                      
 LARGEST CORRECTION TO DISP.        8.049E-07   AT NODE      14209   DOF  2
   INSTANCE: NDBR15-M-1                                                                      
          FORCE     EQUILIBRIUM NOT ACHIEVED WITHIN TOLERANCE.
 
	SYMMETRIC NEW DIRECT SPARSE SOLVER RUNNING ON
 	1 HOST x 1 MPI RANK PER HOST x 8 THREADS PER RANK
        NUMBER OF EQUATIONS:  129123
        NUMBER OF RHS:        1
        NUMBER OF FLOPS:      5.699e+10
        SOLVER ELAPSED TIME:  551ms

               CONVERGENCE CHECKS FOR EQUILIBRIUM ITERATION     2


 AVERAGE FORCE                       3.87       TIME AVG. FORCE        2.04    
 LARGEST SCALED RESIDUAL FORCE      1.784E-02   AT NODE      30655   DOF  2
   INSTANCE: NDBR15-M-1                                                                      
  CORRESPONDING RESIDUAL FORCE      1.784E-02
 LARGEST INCREMENT OF DISP.         1.800E-05   AT NODE         21   DOF  2
   INSTANCE: NDBR15-M-1                                                                      
 LARGEST CORRECTION TO DISP.        7.452E-08   AT NODE      10348   DOF  2
   INSTANCE: NDBR15-M-1                                                                      
          FORCE     EQUILIBRIUM NOT ACHIEVED WITHIN TOLERANCE.
 
	SYMMETRIC NEW DIRECT SPARSE SOLVER RUNNING ON
 	1 HOST x 1 MPI RANK PER HOST x 8 THREADS PER RANK
        NUMBER OF EQUATIONS:  129123
        NUMBER OF RHS:        1
        NUMBER OF FLOPS:      5.699e+10
        SOLVER ELAPSED TIME:  548ms

               CONVERGENCE CHECKS FOR EQUILIBRIUM ITERATION     3


 AVERAGE FORCE                       3.87       TIME AVG. FORCE        2.04    
 LARGEST SCALED RESIDUAL FORCE     -6.100E-04   AT NODE      36124   DOF  3
   INSTANCE: NDBR15-M-1                                                                      
  CORRESPONDING RESIDUAL FORCE     -6.100E-04
 LARGEST INCREMENT OF DISP.         1.800E-05   AT NODE         21   DOF  2
   INSTANCE: NDBR15-M-1                                                                      
 LARGEST CORRECTION TO DISP.        6.360E-09   AT NODE      14095   DOF  2
   INSTANCE: NDBR15-M-1                                                                      
          THE FORCE     EQUILIBRIUM EQUATIONS HAVE CONVERGED

 ITERATION SUMMARY FOR THE INCREMENT:   3 TOTAL ITERATIONS, OF WHICH
   0 ARE SEVERE DISCONTINUITY ITERATIONS AND  3 ARE EQUILIBRIUM ITERATIONS.

 TIME INCREMENT COMPLETED   10.0    ,  FRACTION OF STEP COMPLETED  0.410    
 STEP TIME COMPLETED        410.    ,  TOTAL TIME COMPLETED         410.    


  INCREMENT    42 STARTS. ATTEMPT NUMBER  1, TIME INCREMENT   10.0    
 
	SYMMETRIC NEW DIRECT SPARSE SOLVER RUNNING ON
 	1 HOST x 1 MPI RANK PER HOST x 8 THREADS PER RANK
        NUMBER OF EQUATIONS:  129123
        NUMBER OF RHS:        1
        NUMBER OF FLOPS:      5.699e+10
        SOLVER ELAPSED TIME:  549ms

               CONVERGENCE CHECKS FOR EQUILIBRIUM ITERATION     1


 AVERAGE FORCE                       3.91       TIME AVG. FORCE        2.08    
 LARGEST SCALED RESIDUAL FORCE      0.120       AT NODE      30478   DOF  2
   INSTANCE: NDBR15-M-1                                                                      
  CORRESPONDING RESIDUAL FORCE      0.120    
 LARGEST INCREMENT OF DISP.         1.800E-05   AT NODE         21   DOF  2
   INSTANCE: NDBR15-M-1                                                                      
 LARGEST CORRECTION TO DISP.        6.270E-07   AT NODE      14500   DOF  2
   INSTANCE: NDBR15-M-1                                                                      
          FORCE     EQUILIBRIUM NOT ACHIEVED WITHIN TOLERANCE.
 
	SYMMETRIC NEW DIRECT SPARSE SOLVER RUNNING ON
 	1 HOST x 1 MPI RANK PER HOST x 8 THREADS PER RANK
        NUMBER OF EQUATIONS:  129123
        NUMBER OF RHS:        1
        NUMBER OF FLOPS:      5.699e+10
        SOLVER ELAPSED TIME:  550ms

               CONVERGENCE CHECKS FOR EQUILIBRIUM ITERATION     2


 AVERAGE FORCE                       3.90       TIME AVG. FORCE        2.08    
 LARGEST SCALED RESIDUAL FORCE      6.879E-03   AT NODE      28324   DOF  2
   INSTANCE: NDBR15-M-1                                                                      
  CORRESPONDING RESIDUAL FORCE      6.879E-03
 LARGEST INCREMENT OF DISP.         1.800E-05   AT NODE         21   DOF  2
   INSTANCE: NDBR15-M-1                                                                      
 LARGEST CORRECTION TO DISP.        3.437E-08   AT NODE      18363   DOF  1
   INSTANCE: NDBR15-M-1                                                                      
          THE FORCE     EQUILIBRIUM EQUATIONS HAVE CONVERGED

[...]
   INSTANCE: NDBR15-M-1                                                                      
 LARGEST CORRECTION TO DISP.       -2.536E-07   AT NODE      13292   DOF  2
   INSTANCE: NDBR15-M-1                                                                      
          FORCE     EQUILIBRIUM NOT ACHIEVED WITHIN TOLERANCE.
 
	SYMMETRIC NEW DIRECT SPARSE SOLVER RUNNING ON
 	1 HOST x 1 MPI RANK PER HOST x 8 THREADS PER RANK
        NUMBER OF EQUATIONS:  129123
        NUMBER OF RHS:        1
        NUMBER OF FLOPS:      5.699e+10
        SOLVER ELAPSED TIME:  551ms

               CONVERGENCE CHECKS FOR EQUILIBRIUM ITERATION     3


 AVERAGE FORCE                       3.29       TIME AVG. FORCE        3.12    
 LARGEST SCALED RESIDUAL FORCE     -9.427E-04   AT NODE      11228   DOF  2
   INSTANCE: NDBR15-M-1                                                                      
  CORRESPONDING RESIDUAL FORCE     -9.427E-04
 LARGEST INCREMENT OF DISP.         2.235E-05   AT NODE      13335   DOF  2
   INSTANCE: NDBR15-M-1                                                                      
 LARGEST CORRECTION TO DISP.        6.654E-09   AT NODE      18348   DOF  1
   INSTANCE: NDBR15-M-1                                                                      
          THE FORCE     EQUILIBRIUM EQUATIONS HAVE CONVERGED

 ITERATION SUMMARY FOR THE INCREMENT:   3 TOTAL ITERATIONS, OF WHICH
   0 ARE SEVERE DISCONTINUITY ITERATIONS AND  3 ARE EQUILIBRIUM ITERATIONS.

 TIME INCREMENT COMPLETED   10.0    ,  FRACTION OF STEP COMPLETED  0.950    
 STEP TIME COMPLETED        950.    ,  TOTAL TIME COMPLETED         950.    


  INCREMENT    96 STARTS. ATTEMPT NUMBER  1, TIME INCREMENT   10.0    
 
	SYMMETRIC NEW DIRECT SPARSE SOLVER RUNNING ON
 	1 HOST x 1 MPI RANK PER HOST x 8 THREADS PER RANK
        NUMBER OF EQUATIONS:  129123
        NUMBER OF RHS:        1
        NUMBER OF FLOPS:      5.699e+10
        SOLVER ELAPSED TIME:  555ms

               CONVERGENCE CHECKS FOR EQUILIBRIUM ITERATION     1


 AVERAGE FORCE                       3.25       TIME AVG. FORCE        3.12    
 LARGEST SCALED RESIDUAL FORCE     -0.223       AT NODE      11433   DOF  3
   INSTANCE: NDBR15-M-1                                                                      
  CORRESPONDING RESIDUAL FORCE     -0.223    
 LARGEST INCREMENT OF DISP.         2.251E-05   AT NODE      13334   DOF  2
   INSTANCE: NDBR15-M-1                                                                      
 LARGEST CORRECTION TO DISP.        7.554E-07   AT NODE      13296   DOF  2
   INSTANCE: NDBR15-M-1                                                                      
          FORCE     EQUILIBRIUM NOT ACHIEVED WITHIN TOLERANCE.
 
	SYMMETRIC NEW DIRECT SPARSE SOLVER RUNNING ON
 	1 HOST x 1 MPI RANK PER HOST x 8 THREADS PER RANK
        NUMBER OF EQUATIONS:  129123
        NUMBER OF RHS:        1
        NUMBER OF FLOPS:      5.699e+10
        SOLVER ELAPSED TIME:  554ms

               CONVERGENCE CHECKS FOR EQUILIBRIUM ITERATION     2


 AVERAGE FORCE                       3.25       TIME AVG. FORCE        3.12    
 LARGEST SCALED RESIDUAL FORCE     -1.724E-02   AT NODE      29501   DOF  2
   INSTANCE: NDBR15-M-1                                                                      
  CORRESPONDING RESIDUAL FORCE     -1.724E-02
 LARGEST INCREMENT OF DISP.         2.229E-05   AT NODE      13334   DOF  2
   INSTANCE: NDBR15-M-1                                                                      
 LARGEST CORRECTION TO DISP.       -2.500E-07   AT NODE      13292   DOF  2
   INSTANCE: NDBR15-M-1                                                                      
          FORCE     EQUILIBRIUM NOT ACHIEVED WITHIN TOLERANCE.
 
	SYMMETRIC NEW DIRECT SPARSE SOLVER RUNNING ON
 	1 HOST x 1 MPI RANK PER HOST x 8 THREADS PER RANK
        NUMBER OF EQUATIONS:  129123
        NUMBER OF RHS:        1
        NUMBER OF FLOPS:      5.699e+10
        SOLVER ELAPSED TIME:  551ms

               CONVERGENCE CHECKS FOR EQUILIBRIUM ITERATION     3


 AVERAGE FORCE                       3.25       TIME AVG. FORCE        3.12    
 LARGEST SCALED RESIDUAL FORCE      6.034E-04   AT NODE      27606   DOF  3
   INSTANCE: NDBR15-M-1                                                                      
  CORRESPONDING RESIDUAL FORCE      6.034E-04
 LARGEST INCREMENT OF DISP.         2.229E-05   AT NODE      13334   DOF  2
   INSTANCE: NDBR15-M-1                                                                      
 LARGEST CORRECTION TO DISP.        7.050E-09   AT NODE      18348   DOF  1
   INSTANCE: NDBR15-M-1                                                                      
          THE FORCE     EQUILIBRIUM EQUATIONS HAVE CONVERGED

 ITERATION SUMMARY FOR THE INCREMENT:   3 TOTAL ITERATIONS, OF WHICH
   0 ARE SEVERE DISCONTINUITY ITERATIONS AND  3 ARE EQUILIBRIUM ITERATIONS.

 TIME INCREMENT COMPLETED   10.0    ,  FRACTION OF STEP COMPLETED  0.960    
 STEP TIME COMPLETED        960.    ,  TOTAL TIME COMPLETED         960.    


  INCREMENT    97 STARTS. ATTEMPT NUMBER  1, TIME INCREMENT   10.0    
 
	SYMMETRIC NEW DIRECT SPARSE SOLVER RUNNING ON
 	1 HOST x 1 MPI RANK PER HOST x 8 THREADS PER RANK
        NUMBER OF EQUATIONS:  129123
        NUMBER OF RHS:        1
        NUMBER OF FLOPS:      5.699e+10
        SOLVER ELAPSED TIME:  556ms

               CONVERGENCE CHECKS FOR EQUILIBRIUM ITERATION     1


 AVERAGE FORCE                       3.21       TIME AVG. FORCE        3.12    
 LARGEST SCALED RESIDUAL FORCE     -0.259       AT NODE      11433   DOF  3
   INSTANCE: NDBR15-M-1                                                                      
  CORRESPONDING RESIDUAL FORCE     -0.259    
 LARGEST INCREMENT OF DISP.         2.245E-05   AT NODE      13334   DOF  2
   INSTANCE: NDBR15-M-1                                                                      
 LARGEST CORRECTION TO DISP.        7.880E-07   AT NODE      13297   DOF  2
   INSTANCE: NDBR15-M-1                                                                      
          FORCE     EQUILIBRIUM NOT ACHIEVED WITHIN TOLERANCE.
 
	SYMMETRIC NEW DIRECT SPARSE SOLVER RUNNING ON
 	1 HOST x 1 MPI RANK PER HOST x 8 THREADS PER RANK
        NUMBER OF EQUATIONS:  129123
        NUMBER OF RHS:        1
        NUMBER OF FLOPS:      5.699e+10
        SOLVER ELAPSED TIME:  550ms

               CONVERGENCE CHECKS FOR EQUILIBRIUM ITERATION     2


 AVERAGE FORCE                       3.21       TIME AVG. FORCE        3.12    
 LARGEST SCALED RESIDUAL FORCE     -3.538E-02   AT NODE       8833   DOF  3
   INSTANCE: NDBR15-M-1                                                                      
  CORRESPONDING RESIDUAL FORCE     -3.538E-02
 LARGEST INCREMENT OF DISP.         2.224E-05   AT NODE      13334   DOF  2
   INSTANCE: NDBR15-M-1                                                                      
 LARGEST CORRECTION TO DISP.       -2.505E-07   AT NODE      13293   DOF  2
   INSTANCE: NDBR15-M-1                                                                      
          FORCE     EQUILIBRIUM NOT ACHIEVED WITHIN TOLERANCE.
 
	SYMMETRIC NEW DIRECT SPARSE SOLVER RUNNING ON
 	1 HOST x 1 MPI RANK PER HOST x 8 THREADS PER RANK
        NUMBER OF EQUATIONS:  129123
        NUMBER OF RHS:        1
        NUMBER OF FLOPS:      5.699e+10
        SOLVER ELAPSED TIME:  554ms

               CONVERGENCE CHECKS FOR EQUILIBRIUM ITERATION     3


 AVERAGE FORCE                       3.21       TIME AVG. FORCE        3.12    
 LARGEST SCALED RESIDUAL FORCE     -3.857E-04   AT NODE      33564   DOF  3
   INSTANCE: NDBR15-M-1                                                                      
  CORRESPONDING RESIDUAL FORCE     -3.857E-04
 LARGEST INCREMENT OF DISP.         2.224E-05   AT NODE      13334   DOF  2
   INSTANCE: NDBR15-M-1                                                                      
 LARGEST CORRECTION TO DISP.        7.608E-09   AT NODE      18348   DOF  1
   INSTANCE: NDBR15-M-1                                                                      
          THE FORCE     EQUILIBRIUM EQUATIONS HAVE CONVERGED

 ITERATION SUMMARY FOR THE INCREMENT:   3 TOTAL ITERATIONS, OF WHICH
   0 ARE SEVERE DISCONTINUITY ITERATIONS AND  3 ARE EQUILIBRIUM ITERATIONS.

 TIME INCREMENT COMPLETED   10.0    ,  FRACTION OF STEP COMPLETED  0.970    
 STEP TIME COMPLETED        970.    ,  TOTAL TIME COMPLETED         970.    


  INCREMENT    98 STARTS. ATTEMPT NUMBER  1, TIME INCREMENT   10.0    
 
	SYMMETRIC NEW DIRECT SPARSE SOLVER RUNNING ON
 	1 HOST x 1 MPI RANK PER HOST x 8 THREADS PER RANK
        NUMBER OF EQUATIONS:  129123
        NUMBER OF RHS:        1
        NUMBER OF FLOPS:      5.699e+10
        SOLVER ELAPSED TIME:  557ms

               CONVERGENCE CHECKS FOR EQUILIBRIUM ITERATION     1


 AVERAGE FORCE                       3.17       TIME AVG. FORCE        3.12    
 LARGEST SCALED RESIDUAL FORCE     -0.335       AT NODE      11434   DOF  3
   INSTANCE: NDBR15-M-1                                                                      
  CORRESPONDING RESIDUAL FORCE     -0.335    
 LARGEST INCREMENT OF DISP.         2.239E-05   AT NODE      13333   DOF  2
   INSTANCE: NDBR15-M-1                                                                      
 LARGEST CORRECTION TO DISP.        8.325E-07   AT NODE      13298   DOF  2
   INSTANCE: NDBR15-M-1                                                                      
          FORCE     EQUILIBRIUM NOT ACHIEVED WITHIN TOLERANCE.
 
	SYMMETRIC NEW DIRECT SPARSE SOLVER RUNNING ON
 	1 HOST x 1 MPI RANK PER HOST x 8 THREADS PER RANK
        NUMBER OF EQUATIONS:  129123
        NUMBER OF RHS:        1
        NUMBER OF FLOPS:      5.699e+10
        SOLVER ELAPSED TIME:  553ms

               CONVERGENCE CHECKS FOR EQUILIBRIUM ITERATION     2


 AVERAGE FORCE                       3.18       TIME AVG. FORCE        3.12    
 LARGEST SCALED RESIDUAL FORCE     -2.064E-02   AT NODE      31414   DOF  2
   INSTANCE: NDBR15-M-1                                                                      
  CORRESPONDING RESIDUAL FORCE     -2.064E-02
 LARGEST INCREMENT OF DISP.         2.219E-05   AT NODE      13333   DOF  2
   INSTANCE: NDBR15-M-1                                                                      
 LARGEST CORRECTION TO DISP.       -2.468E-07   AT NODE      13294   DOF  2
   INSTANCE: NDBR15-M-1                                                                      
          FORCE     EQUILIBRIUM NOT ACHIEVED WITHIN TOLERANCE.
 
	SYMMETRIC NEW DIRECT SPARSE SOLVER RUNNING ON
 	1 HOST x 1 MPI RANK PER HOST x 8 THREADS PER RANK
        NUMBER OF EQUATIONS:  129123
        NUMBER OF RHS:        1
        NUMBER OF FLOPS:      5.699e+10
        SOLVER ELAPSED TIME:  550ms

               CONVERGENCE CHECKS FOR EQUILIBRIUM ITERATION     3


 AVERAGE FORCE                       3.18       TIME AVG. FORCE        3.12    
 LARGEST SCALED RESIDUAL FORCE      1.371E-03   AT NODE      29559   DOF  3
   INSTANCE: NDBR15-M-1                                                                      
  CORRESPONDING RESIDUAL FORCE      1.371E-03
 LARGEST INCREMENT OF DISP.         2.219E-05   AT NODE      13333   DOF  2
   INSTANCE: NDBR15-M-1                                                                      
 LARGEST CORRECTION TO DISP.        8.306E-09   AT NODE      18348   DOF  1
   INSTANCE: NDBR15-M-1                                                                      
          THE FORCE     EQUILIBRIUM EQUATIONS HAVE CONVERGED

 ITERATION SUMMARY FOR THE INCREMENT:   3 TOTAL ITERATIONS, OF WHICH
   0 ARE SEVERE DISCONTINUITY ITERATIONS AND  3 ARE EQUILIBRIUM ITERATIONS.

 TIME INCREMENT COMPLETED   10.0    ,  FRACTION OF STEP COMPLETED  0.980    
 STEP TIME COMPLETED        980.    ,  TOTAL TIME COMPLETED         980.    


  INCREMENT    99 STARTS. ATTEMPT NUMBER  1, TIME INCREMENT   10.0    
 
	SYMMETRIC NEW DIRECT SPARSE SOLVER RUNNING ON
 	1 HOST x 1 MPI RANK PER HOST x 8 THREADS PER RANK
        NUMBER OF EQUATIONS:  129123
        NUMBER OF RHS:        1
        NUMBER OF FLOPS:      5.699e+10
        SOLVER ELAPSED TIME:  549ms

               CONVERGENCE CHECKS FOR EQUILIBRIUM ITERATION     1


 AVERAGE FORCE                       3.14       TIME AVG. FORCE        3.12    
 LARGEST SCALED RESIDUAL FORCE     -0.337       AT NODE      11435   DOF  3
   INSTANCE: NDBR15-M-1                                                                      
  CORRESPONDING RESIDUAL FORCE     -0.337    
 LARGEST INCREMENT OF DISP.         2.235E-05   AT NODE      13333   DOF  2
   INSTANCE: NDBR15-M-1                                                                      
 LARGEST CORRECTION TO DISP.        8.983E-07   AT NODE      18162   DOF  2
   INSTANCE: NDBR15-M-1                                                                      
          FORCE     EQUILIBRIUM NOT ACHIEVED WITHIN TOLERANCE.
 
	SYMMETRIC NEW DIRECT SPARSE SOLVER RUNNING ON
 	1 HOST x 1 MPI RANK PER HOST x 8 THREADS PER RANK
        NUMBER OF EQUATIONS:  129123
        NUMBER OF RHS:        1
        NUMBER OF FLOPS:      5.699e+10
        SOLVER ELAPSED TIME:  553ms

               CONVERGENCE CHECKS FOR EQUILIBRIUM ITERATION     2


 AVERAGE FORCE                       3.14       TIME AVG. FORCE        3.12    
 LARGEST SCALED RESIDUAL FORCE      5.596E-02   AT NODE      25731   DOF  3
   INSTANCE: NDBR15-M-1                                                                      
  CORRESPONDING RESIDUAL FORCE      5.596E-02
 LARGEST INCREMENT OF DISP.         2.215E-05   AT NODE      13333   DOF  2
   INSTANCE: NDBR15-M-1                                                                      
 LARGEST CORRECTION TO DISP.       -2.504E-07   AT NODE      13295   DOF  2
   INSTANCE: NDBR15-M-1                                                                      
          FORCE     EQUILIBRIUM NOT ACHIEVED WITHIN TOLERANCE.
 
	SYMMETRIC NEW DIRECT SPARSE SOLVER RUNNING ON
 	1 HOST x 1 MPI RANK PER HOST x 8 THREADS PER RANK
        NUMBER OF EQUATIONS:  129123
        NUMBER OF RHS:        1
        NUMBER OF FLOPS:      5.699e+10
        SOLVER ELAPSED TIME:  552ms

               CONVERGENCE CHECKS FOR EQUILIBRIUM ITERATION     3


 AVERAGE FORCE                       3.14       TIME AVG. FORCE        3.12    
 LARGEST SCALED RESIDUAL FORCE     -1.206E-03   AT NODE      25730   DOF  3
   INSTANCE: NDBR15-M-1                                                                      
  CORRESPONDING RESIDUAL FORCE     -1.206E-03
 LARGEST INCREMENT OF DISP.         2.215E-05   AT NODE      13333   DOF  2
   INSTANCE: NDBR15-M-1                                                                      
 LARGEST CORRECTION TO DISP.        8.940E-09   AT NODE      18348   DOF  1
   INSTANCE: NDBR15-M-1                                                                      
          THE FORCE     EQUILIBRIUM EQUATIONS HAVE CONVERGED

 ITERATION SUMMARY FOR THE INCREMENT:   3 TOTAL ITERATIONS, OF WHICH
   0 ARE SEVERE DISCONTINUITY ITERATIONS AND  3 ARE EQUILIBRIUM ITERATIONS.

 TIME INCREMENT COMPLETED   10.0    ,  FRACTION OF STEP COMPLETED  0.990    
 STEP TIME COMPLETED        990.    ,  TOTAL TIME COMPLETED         990.    


  INCREMENT   100 STARTS. ATTEMPT NUMBER  1, TIME INCREMENT   10.0    
 
	SYMMETRIC NEW DIRECT SPARSE SOLVER RUNNING ON
 	1 HOST x 1 MPI RANK PER HOST x 8 THREADS PER RANK
        NUMBER OF EQUATIONS:  129123
        NUMBER OF RHS:        1
        NUMBER OF FLOPS:      5.699e+10
        SOLVER ELAPSED TIME:  549ms

               CONVERGENCE CHECKS FOR EQUILIBRIUM ITERATION     1


 AVERAGE FORCE                       3.10       TIME AVG. FORCE        3.12    
 LARGEST SCALED RESIDUAL FORCE     -0.278       AT NODE      11436   DOF  3
   INSTANCE: NDBR15-M-1                                                                      
  CORRESPONDING RESIDUAL FORCE     -0.278    
 LARGEST INCREMENT OF DISP.         2.235E-05   AT NODE      13721   DOF  2
   INSTANCE: NDBR15-M-1                                                                      
 LARGEST CORRECTION TO DISP.        1.011E-06   AT NODE      18163   DOF  2
   INSTANCE: NDBR15-M-1                                                                      
          FORCE     EQUILIBRIUM NOT ACHIEVED WITHIN TOLERANCE.
 
	SYMMETRIC NEW DIRECT SPARSE SOLVER RUNNING ON
 	1 HOST x 1 MPI RANK PER HOST x 8 THREADS PER RANK
        NUMBER OF EQUATIONS:  129123
        NUMBER OF RHS:        1
        NUMBER OF FLOPS:      5.699e+10
        SOLVER ELAPSED TIME:  548ms

               CONVERGENCE CHECKS FOR EQUILIBRIUM ITERATION     2


 AVERAGE FORCE                       3.10       TIME AVG. FORCE        3.12    
 LARGEST SCALED RESIDUAL FORCE     -3.149E-02   AT NODE      25729   DOF  3
   INSTANCE: NDBR15-M-1                                                                      
  CORRESPONDING RESIDUAL FORCE     -3.149E-02
 LARGEST INCREMENT OF DISP.         2.216E-05   AT NODE      13721   DOF  2
   INSTANCE: NDBR15-M-1                                                                      
 LARGEST CORRECTION TO DISP.       -2.492E-07   AT NODE      13296   DOF  2
   INSTANCE: NDBR15-M-1                                                                      
          FORCE     EQUILIBRIUM NOT ACHIEVED WITHIN TOLERANCE.
 
	SYMMETRIC NEW DIRECT SPARSE SOLVER RUNNING ON
 	1 HOST x 1 MPI RANK PER HOST x 8 THREADS PER RANK
        NUMBER OF EQUATIONS:  129123
        NUMBER OF RHS:        1
        NUMBER OF FLOPS:      5.699e+10
        SOLVER ELAPSED TIME:  553ms

               CONVERGENCE CHECKS FOR EQUILIBRIUM ITERATION     3


 AVERAGE FORCE                       3.10       TIME AVG. FORCE        3.12    
 LARGEST SCALED RESIDUAL FORCE      7.548E-04   AT NODE      11229   DOF  3
   INSTANCE: NDBR15-M-1                                                                      
  CORRESPONDING RESIDUAL FORCE      7.548E-04
 LARGEST INCREMENT OF DISP.         2.216E-05   AT NODE      13721   DOF  2
   INSTANCE: NDBR15-M-1                                                                      
 LARGEST CORRECTION TO DISP.        9.607E-09   AT NODE      15240   DOF  1
   INSTANCE: NDBR15-M-1                                                                      
          THE FORCE     EQUILIBRIUM EQUATIONS HAVE CONVERGED

 ITERATION SUMMARY FOR THE INCREMENT:   3 TOTAL ITERATIONS, OF WHICH
   0 ARE SEVERE DISCONTINUITY ITERATIONS AND  3 ARE EQUILIBRIUM ITERATIONS.

 TIME INCREMENT COMPLETED   10.0    ,  FRACTION OF STEP COMPLETED   1.00    
 STEP TIME COMPLETED       1.000E+03,  TOTAL TIME COMPLETED        1.000E+03


          THE ANALYSIS HAS BEEN COMPLETED



     ANALYSIS SUMMARY:
     TOTAL OF        100  INCREMENTS
                       0  CUTBACKS IN AUTOMATIC INCREMENTATION
                     201  ITERATIONS INCLUDING CONTACT ITERATIONS IF PRESENT
                     201  PASSES THROUGH THE EQUATION SOLVER OF WHICH 
                     201  INVOLVE MATRIX DECOMPOSITION, INCLUDING
                       0  DECOMPOSITION(S) OF THE MASS MATRIX
                       1  REORDERING OF EQUATIONS TO MINIMIZE WAVEFRONT
                       0  ADDITIONAL RESIDUAL EVALUATIONS FOR LINE SEARCHES
                       0  ADDITIONAL OPERATOR EVALUATIONS FOR LINE SEARCHES
                       5  WARNING MESSAGES DURING USER INPUT PROCESSING
                       0  WARNING MESSAGES DURING ANALYSIS
                       0  ANALYSIS WARNINGS ARE NUMERICAL PROBLEM MESSAGES
                       0  ANALYSIS WARNINGS ARE NEGATIVE EIGENVALUE MESSAGES
                       0  ERROR MESSAGES



     JOB TIME SUMMARY
       USER TIME (SEC)      =     1.25E+03
       SYSTEM TIME (SEC)    =      20.    
       TOTAL CPU TIME (SEC) =     1.27E+03
       WALLCLOCK TIME (SEC) =          303
       MEMORY PEAK (GB)     =            0
