*Heading
***************************************************************************************
************************* Dynamic fracture using 2D elements **************************
***************************************************************************************
** Job name: Test_2D Model name: Model-1
** Generated by: Abaqus/CAE 6.14-5
*Preprint, echo=NO, model=NO, history=NO, contact=NO
**
***************************************************************
** Definition of the nodes and the elements
***************************************************************
*Part, name=Plate
** ------------------ Nodes ------------------------
*Node
      1,           0.,           0.
      2, -0.0500000007, 0.0199999996
      3, -0.0500000007, 9.99999997e-07
      4, 0.0299999993, -0.0199999996
      5, 0.0299999993, 0.0199999996
      6, -0.0500000007, -9.99999997e-07
      7, -0.0500000007, -0.0199999996
      8, 0.0500000007, -0.0199999996
      9, 0.0500000007, 0.0199999996
     10, 0.0299999993, -0.0179738868
     11, 0.0299999993, -0.0160092972
     12, 0.0299999993, -0.0140146762
     13, 0.0299999993, -0.012007351
     14, 0.0299999993, -0.0100030024
     15, 0.0299999993, -0.00800093822
     16, 0.0299999993, -0.0060002082
     17, 0.0299999993, -0.00400004163
     18, 0.0299999993, -0.00200000824
     19, 0.0299999993, -2.09547574e-10
     20, 0.0299999993, 0.00200000592
** ... 1099 like lines cut
***************************************************************
** ---------------- Element type definition ------------------
*********************** TRIANGULAR ****************************
** ---------------- Displacement ----------------
*User element, nodes=3, type=U1, properties=11, coordinates=2, VARIABLES=34
1,2
** ---------------- Phase-field ----------------
*User element, nodes=3, type=U3, properties=4, coordinates=2, VARIABLES=5
3
*********************** RECTENGULAR ***************************
** ---------------- Displacement ----------------
*User element, nodes=4, type=U2, properties=11, coordinates=2, VARIABLES=120
1,2
** ---------------- Phase-field ----------------
*User element, nodes=4, type=U4, properties=4, coordinates=2, VARIABLES=12
3
***************************************************************
** ---------------- Element definition ------------------
***************************************************************
** ---------------- Displacement ----------------
*Element, type=U2
1, 1, 210, 228, 100
2, 210, 211, 229, 228
3, 211, 212, 230, 229
4, 212, 213, 231, 230
5, 213, 214, 232, 231
6, 214, 215, 233, 232
7, 215, 216, 234, 233
8, 216, 217, 235, 234
9, 217, 218, 236, 235
10, 218,  43,  44, 236
11, 100, 228, 237, 99
12, 228, 229, 238, 237
13, 229, 230, 239, 238
14, 230, 231, 240, 239
15, 231, 232, 241, 240
16, 232, 233, 242, 241
17, 233, 234, 243, 242
18, 234, 235, 244, 243
19, 235, 236, 245, 244
20, 236,  44,  45, 245
** ... 780 like lines cut
***************************************************************
** ---------------- Phase-field ----------------
*Element, type=U4
1247, 1, 210, 228, 100
1248, 210, 211, 229, 228
1249, 211, 212, 230, 229
1250, 212, 213, 231, 230
1251, 213, 214, 232, 231
1252, 214, 215, 233, 232
1253, 215, 216, 234, 233
1254, 216, 217, 235, 234
1255, 217, 218, 236, 235
1256, 218,  43,  44, 236
1257, 100, 228, 237, 99
1258, 228, 229, 238, 237
1259, 229, 230, 239, 238
1260, 230, 231, 240, 239
1261, 231, 232, 241, 240
1262, 232, 233, 242, 241
1263, 233, 234, 243, 242
1264, 234, 235, 244, 243
1265, 235, 236, 245, 244
1266, 236,  44,  45, 245
** ... 780 like lines cut
***************************************************************
** ---------------- Displacement ----------------
*Element, type=U1
801, 926,  27, 26
802, 927,  27, 926
803, 970, 206, 207
804, 928, 926, 26
805, 929, 928, 25
806, 930, 929, 24
807, 931, 930, 23
808, 932, 931, 22
809, 933, 932, 21
810, 934, 933, 20
811, 935, 934, 19
812, 936, 935, 18
813, 937, 936, 17
814, 938, 937, 16
815, 939, 938, 15
816, 971, 960, 959
817, 940, 939, 14
818, 941, 940, 13
819, 942, 941, 12
820, 943, 942, 11
** ... 426 like lines cut
***************************************************************
** ---------------- Phase-field ----------------
*Element, type=U3
2047, 926,  27, 26
2048, 927,  27, 926
2049, 970, 206, 207
2050, 928, 926, 26
2051, 929, 928, 25
2052, 930, 929, 24
2053, 931, 930, 23
2054, 932, 931, 22
2055, 933, 932, 21
2056, 934, 933, 20
2057, 935, 934, 19
2058, 936, 935, 18
2059, 937, 936, 17
2060, 938, 937, 16
2061, 939, 938, 15
2062, 971, 960, 959
2063, 940, 939, 14
2064, 941, 940, 13
2065, 942, 941, 12
2066, 943, 942, 11
** ... 426 like lines cut
***************************************************************
********************** ASSIGNING MATERIAL PROP ****************
** ---------------- Generate sets ----------------
*Elset, elset=uel_Plate, generate
    1,  1246,     1
***************************************************************
*Uel property, elset=uel_Plate
32000000000, 0.2, 100000000000, 0, 1, 1, 2450, 1,
0, 0.004, 3
**E, nu, Y, H, eps_cr, h, rho, anisoswt,
**plswt, lc, gc
***************************************************************
*Elset, elset=uel_Plate_PH, generate
1247, 2492, 1
*Uel property, elset=uel_Plate_PH
0.004, 3, 1, 1
**lc, gc, h, elswt
***************************************************************
** ---------------- UMAT element layer ----------------
*Element, type=CPE4
2493, 1, 210, 228, 100
2494, 210, 211, 229, 228
2495, 211, 212, 230, 229
2496, 212, 213, 231, 230
2497, 213, 214, 232, 231
2498, 214, 215, 233, 232
2499, 215, 216, 234, 233
2500, 216, 217, 235, 234
2501, 217, 218, 236, 235
2502, 218,  43,  44, 236
2503, 100, 228, 237, 99
2504, 228, 229, 238, 237
2505, 229, 230, 239, 238
2506, 230, 231, 240, 239
2507, 231, 232, 241, 240
2508, 232, 233, 242, 241
2509, 233, 234, 243, 242
2510, 234, 235, 244, 243
2511, 235, 236, 245, 244
2512, 236,  44,  45, 245
** ... 780 like lines cut
***************************************************************
*Element, type=CPE3
3293, 926,  27, 26
3294, 927,  27, 926
3295, 970, 206, 207
3296, 928, 926, 26
3297, 929, 928, 25
3298, 930, 929, 24
3299, 931, 930, 23
3300, 932, 931, 22
3301, 933, 932, 21
3302, 934, 933, 20
3303, 935, 934, 19
3304, 936, 935, 18
3305, 937, 936, 17
3306, 938, 937, 16
3307, 939, 938, 15
3308, 971, 960, 959
3309, 940, 939, 14
3310, 941, 940, 13
3311, 942, 941, 12
3312, 943, 942, 11
** ... 426 like lines cut
***************************************************************
*Elset, elset=umatelem, generate
2493, 3738, 1
***************************************************************
*Solid Section, elset=umatelem, material=umaterial
1.0
*End Part
**  
**
** ASSEMBLY
**
*Assembly, name=Assembly
**  
*Instance, name=Plate-1, part=Plate
*End Instance
**  
** ---------------- Surface definitions ----------------
*Elset, elset=_btm_S2, internal, instance=Plate-1
2762, 2782, 2802, 2822, 2842, 2862, 2882, 2902, 2922, 2942, 2962, 2982, 3002, 3022, 3042, 3313,
3314, 3318, 3387, 3390, 3392, 3394, 3445, 3487, 3525,
*Elset, elset=_btm_S4, internal, instance=Plate-1, generate
3043, 3283, 10
*Surface, type=ELEMENT, name=btm
_btm_S2, S2
_btm_S4, S4
*Elset, elset=_top_S2, internal, instance=Plate-1
2502, 2512, 2522, 2532, 2542, 2552, 2562, 2572, 2582, 2592, 2602, 2612, 2622, 2632, 2642, 2652,
2662, 2672, 2682, 2692, 2702, 2712, 2722, 2732, 2742, 3295, 3429, 3432, 3434, 3436, 3437, 3439,
3457,
*Elset, elset=_top_S4, internal, instance=Plate-1, generate
2743, 3023, 20
*Elset, elset=_top_S3, internal, instance=Plate-1
3323,
*Elset, elset=_top_S1, internal, instance=Plate-1
3342,
*Surface, type=ELEMENT, name=top
_top_S2, S2
_top_S4, S4
_top_S3, S3
_top_S1, S1
**
*Elset, elset=umatelem, instance=Plate-1, generate
2493, 3738, 1
**
*End Assembly
***************************************************************
** 
** ----- UMAT MATERIAL -----
*Material, name=umaterial
*Density
 1e-11,
*Depvar
     24,
*User Material, constants=2
 1e-11, 0.3
** ----------------------------------------------------------------
** 
** STEP: Step-1
** 
** ---- Time integration control
*Step, name=Step-1, nlgeom=NO, inc=1000
*Dynamic,direct
1e-07,0.0001,
** 
** LOADS
** 
** ---- Pressure load on the bottom and the top side of the sample
** Name: btm   Type: Pressure
*Dsload
btm, P, -1e+06
** Name: top   Type: Pressure
*Dsload
top, P, -1e+06
** 
** OUTPUT REQUESTS
** 
** ---- Restart file request
*Restart, write, frequency=0
** 
** FIELD OUTPUT: F-Output-1
** 
** ---- Output request
*Output, field
*Node Output
A, U, V
*Element Output, directions=YES
E, 
** 
** HISTORY OUTPUT: H-Output-1
** 
*element output, elset=umatelem
SDV
*Element Output, elset=umatelem, Position=Integration Points
COORD, IVOL
**
*Output, history, variable=PRESELECT
*End Step
