*HEADING
*NODE, NSET=ALL
         1,             1997.51,                30.0,              273.25
         2,             2032.01,                30.0,              273.25
         3,             1997.48,             56.0099,              273.25
         4,              2032.0,             56.0099,              273.25
         5,             1821.98,               28.98,             372.519
         7,              2045.0,               15.09,             274.779
         8,              2045.0,               13.51,              278.88
         9,              2040.0,               13.51,              278.88
        10,              2040.0,                15.1,             274.779
        11,              2045.0,             19.0499,              273.23
        12,              2040.0,             19.0599,              273.23
        13,              2035.0,               15.08,             274.799
        14,             2035.91,             19.0599,              273.23
        15,              2035.0,               13.51,              278.88
        16,             2028.11,               19.07,              273.23
        17,              2030.0,                15.1,             274.779
        18,              2025.0,             15.1099,             274.759
        19,              2025.0,               19.07,              273.23
        20,              2030.0,               13.51,             278.869
        21,              2025.0,               13.51,             278.869
** ... 3283 like lines cut
*ELEMENT, TYPE=S3, ELSET=Property_2
         1,       160,      3250,      1181
         2,      1181,      1183,       802
         3,       781,      1256,      3264
         4,      3264,      1255,      3263
         5,      3259,      1336,      3260
         6,      3260,      1337,       796
         7,      3257,      1342,      3258
         8,      3258,      1341,      3259
         9,       704,      1387,      1390
        10,      1390,      3294,       867
        11,       799,      1422,      1423
        12,      1423,      3297,       136
        13,       270,      1716,      1717
        14,      1717,      1718,       282
        15,       282,      1718,      1719
        16,      1719,      1720,       700
        17,       829,      1771,      1772
        18,      1772,      1770,        54
        19,        54,      1773,      1772
        20,      1772,      1774,       829
** ... 4 like lines cut
*ELEMENT, TYPE=S4, ELSET=Property_2
        25,       657,       876,       874,       875
        26,       875,       874,       877,       670
        27,       876,       656,       878,       874
        28,       874,       878,       669,       877
        29,       670,       877,       879,       880
        30,       880,       879,       881,       683
        31,       877,       669,       882,       879
        32,       879,       882,       682,       881
        33,       683,       881,       883,       884
        34,       884,       883,       885,       696
        35,       881,       682,       886,       883
        36,       883,       886,       695,       885
        37,       696,       885,       887,       888
        38,       888,       887,       889,       268
        39,       885,       695,       890,       887
        40,       887,       890,       264,       889
        41,       268,       889,       891,      3238
        42,      3238,       891,       892,       269
        43,       889,       264,       893,       891
        44,       891,       893,       267,       892
** ... 2276 like lines cut
*ELEMENT, TYPE=S4, ELSET=Property_3
      2321,       746,      1226,      1224,      1225
      2322,      1226,       745,      1227,      1224
      2323,       742,      1230,      1228,      1229
      2324,      1229,      1228,      1226,       746
      2325,      1230,       741,      1231,      1228
      2326,      1228,      1231,       745,      1226
      2327,      1729,       610,      1731,      1728
      2328,      1728,      1731,       589,      1730
      2329,      1733,      1732,      1735,       587
      2330,      1732,      1730,       589,      1735
      2331,       587,      1735,      1736,      1737
      2332,      1737,      1736,      1738,       590
      2333,      1735,       589,      1739,      1736
      2334,      1736,      1739,       592,      1738
      2335,       590,      1738,      1740,      1741
      2336,      1741,      1740,      1742,       593
      2337,      1738,       592,      1743,      1740
      2338,      1740,      1743,       595,      1742
      2339,       593,      1742,      1744,      1745
      2340,      1745,      1744,      1746,       596
** ... 796 like lines cut
*ELEMENT, TYPE=MASS, ELSET=MASS_1
      4001,         1
      4002,         2
      4003,         3
      4004,         4
      4005,         5
*ELSET, ELSET=P1
         1,         2,         3,         4,         5,         6,         7,         8,         9,
        10,        11,        12,        13,        14,        15,        16,        17,        18,
        19,        20,        21,        22,        23,        24,        25,        26,        27,
        28,        29,        30,        31,        32,        33,        34,        35,        36,
        37,        38,        39,        40,        41,        42,        43,        44,        45,
        46,        47,        48,        49,        50,        51,        52,        53,        54,
        55,        56,        57,        58,        59,        60,        61,        62,        63,
        64,        65,        66,        67,        68,        69,        70,        71,        72,
        73,        74,        75,        76,        77,        78,        79,        80,        81,
        82,        83,        84,        85,        86,        87,        88,        89,        90,
        91,        92,        93,        94,        95,        96,        97,        98,        99,
       100,       101,       102,       103,       104,       105,       106,       107,       108,
       109,       110,       111,       112,       113,       114,       115,       116,       117,
       118,       119,       120,       121,       122,       123,       124,       125,       126,
       127,       128,       129,       130,       131,       132,       133,       134,       135,
       136,       137,       138,       139,       140,       141,       142,       143,       144,
       145,       146,       147,       148,       149,       150,       151,       152,       153,
       154,       155,       156,       157,       158,       159,       160,       161,       162,
       163,       164,       165,       166,       167,       168,       169,       170,       171,
       172,       173,       174,       175,       176,       177,       178,       179,       180,
** ... 238 like lines cut
*ELSET, ELSET=P3
      2321,      2322,      2323,      2324,      2325,      2326,      2327,      2328,      2329,
      2330,      2331,      2332,      2333,      2334,      2335,      2336,      2337,      2338,
      2339,      2340,      2341,      2342,      2343,      2344,      2345,      2346,      2347,
      2348,      2349,      2350,      2351,      2352,      2353,      2354,      2355,      2356,
      2357,      2358,      2359,      2360,      2361,      2362,      2363,      2364,      2365,
      2366,      2367,      2368,      2369,      2370,      2371,      2372,      2373,      2374,
      2375,      2376,      2377,      2378,      2379,      2380,      2381,      2382,      2383,
      2384,      2385,      2386,      2387,      2388,      2389,      2390,      2391,      2392,
      2393,      2394,      2395,      2396,      2397,      2398,      2399,      2400,      2401,
      2402,      2403,      2404,      2405,      2406,      2407,      2408,      2409,      2410,
      2411,      2412,      2413,      2414,      2415,      2416,      2417,      2418,      2419,
      2420,      2421,      2422,      2423,      2424,      2425,      2426,      2427,      2428,
      2429,      2430,      2431,      2432,      2433,      2434,      2435,      2436,      2437,
      2438,      2439,      2440,      2441,      2442,      2443,      2444,      2445,      2446,
      2447,      2448,      2449,      2450,      2451,      2452,      2453,      2454,      2455,
      2456,      2457,      2458,      2459,      2460,      2461,      2462,      2463,      2464,
      2465,      2466,      2467,      2468,      2469,      2470,      2471,      2472,      2473,
      2474,      2475,      2476,      2477,      2478,      2479,      2480,      2481,      2482,
      2483,      2484,      2485,      2486,      2487,      2488,      2489,      2490,      2491,
      2492,      2493,      2494,      2495,      2496,      2497,      2498,      2499,      2500,
** ... 71 like lines cut
*ELSET, ELSET=DESIGN_ALL
      2321,      2322,      2323,      2324,      2325,      2326,      2327,      2328,      2329,
      2330,      2331,      2332,      2333,      2334,      2335,      2336,      2337,      2338,
      2339,      2340,      2341,      2342,      2343,      2344,      2345,      2346,      2347,
      2348,      2349,      2350,      2351,      2352,      2353,      2354,      2355,      2356,
      2357,      2358,      2359,      2360,      2361,      2362,      2363,      2364,      2365,
      2366,      2367,      2368,      2369,      2370,      2371,      2372,      2373,      2374,
      2375,      2376,      2377,      2378,      2379,      2380,      2381,      2382,      2383,
      2384,      2385,      2386,      2387,      2388,      2389,      2390,      2391,      2392,
      2393,      2394,      2395,      2396,      2397,      2398,      2399,      2400,      2401,
      2402,      2403,      2404,      2405,      2406,      2407,      2408,      2409,      2410,
      2411,      2412,      2413,      2414,      2415,      2416,      2417,      2418,      2419,
      2420,      2421,      2422,      2423,      2424,      2425,      2426,      2427,      2428,
      2429,      2430,      2431,      2432,      2433,      2434,      2435,      2436,      2437,
      2438,      2439,      2440,      2441,      2442,      2443,      2444,      2445,      2446,
      2447,      2448,      2449,      2450,      2451,      2452,      2453,      2454,      2455,
      2456,      2457,      2458,      2459,      2460,      2461,      2462,      2463,      2464,
      2465,      2466,      2467,      2468,      2469,      2470,      2471,      2472,      2473,
      2474,      2475,      2476,      2477,      2478,      2479,      2480,      2481,      2482,
      2483,      2484,      2485,      2486,      2487,      2488,      2489,      2490,      2491,
      2492,      2493,      2494,      2495,      2496,      2497,      2498,      2499,      2500,
** ... 71 like lines cut
*ELSET, ELSET=DES_RING1
      2321,      2322,      2323,      2324,      2325,      2326,      2327,      2328,      2329,
      2330,      2331,      2333,      2348,      2350,      2351,      2352,      2353,      2354,
      2355,      2356,      2357,      2358,      2363,      2364,      2383,      2384,      2385,
      2386,      2389,      2390,      2391,      2392,      2393,      2394,      2395,      2396,
      2397,      2398,      2399,      2400,      2401,      2402,      2403,      2404,      2405,
      2406,      2407,      2408,      2417,      2418,      2419,      2420,      2421,      2422,
      2423,      2424,      2425,      2426,      2428,      2430,      2451,      2453,      2455,
      2456,      2457,      2458,      2459,      2460,      2461,      2462,      2463,      2465,
      2480,      2482,      2483,      2484,      2485,      2486,      2488,      2490,      2492,
      2494,      2507,      2509,      2511,      2512,      2513,      2514,      2515,      2516,
      2517,      2519,      2538,      2540,      2541,      2542,      2543,      2544,      2546,
      2548,      2565,      2567,      2569,      2570,      2571,      2572,      2573,      2574,
      2575,      2577,      2596,      2598,      2599,      2600,      2601,      2602,      2604,
      2606,      2608,      2610,      2612,      2614,      2627,      2629,      2631,      2633,
      2635,      2636,      2637,      2638,      2639,      2640,      2641,      2642,      2643,
      2645,      2668,      2670,      2671,      2672,      2673,      2674,      2676,      2678,
      2699,      2701,      2703,      2704,      2705,      2706,      2707,      2708,      2709,
      2711,      2713,      2715,      2734,      2736,      2737,      2738,      2739,      2740,
      2741,      2742,      2744,      2746,      2759,      2761,      2763,      2765,      2767,
      2768,      2769,      2770,      2771,      2772,      2773,      2774,      2777,      2778,
** ... 14 like lines cut
*ELSET, ELSET=DES_RING2
      2332,      2334,      2335,      2337,      2344,      2346,      2347,      2349,      2359,
      2360,      2361,      2362,      2367,      2368,      2373,      2374,      2375,      2376,
      2377,      2378,      2379,      2380,      2381,      2382,      2387,      2388,      2409,
      2410,      2413,      2414,      2415,      2416,      2427,      2429,      2432,      2434,
      2437,      2438,      2443,      2444,      2447,      2449,      2452,      2454,      2464,
      2466,      2467,      2469,      2476,      2478,      2479,      2481,      2487,      2489,
      2491,      2493,      2496,      2498,      2503,      2505,      2508,      2510,      2518,
      2520,      2521,      2523,      2530,      2532,      2534,      2536,      2537,      2539,
      2545,      2547,      2550,      2552,      2561,      2563,      2566,      2568,      2576,
      2578,      2579,      2581,      2583,      2585,      2592,      2594,      2595,      2597,
      2603,      2605,      2607,      2609,      2611,      2613,      2616,      2618,      2623,
      2625,      2628,      2630,      2632,      2634,      2644,      2646,      2647,      2649,
      2660,      2662,      2664,      2666,      2667,      2669,      2675,      2677,      2680,
      2682,      2691,      2693,      2695,      2697,      2700,      2702,      2710,      2712,
      2714,      2716,      2717,      2719,      2721,      2723,      2730,      2732,      2733,
      2735,      2743,      2745,      2748,      2750,      2755,      2757,      2760,      2762,
      2764,      2766,      2775,      2776,      2781,      2782,      2783,      2784,      2785,
      2786,      2787,      2788,      2789,      2790,      2791,      2792,      2793,      2794,
      2796,      2798,      2807,      2808,      2813,      2814,      2817,      2819,      2822,
      2824,      2829,      2831,      2834,      2836,      2840,      2842,      2843,      2845,
** ... 11 like lines cut
*ELSET, ELSET=DES_RING3
      2336,      2338,      2339,      2340,      2341,      2342,      2343,      2345,      2365,
      2366,      2369,      2370,      2371,      2372,      2411,      2412,      2431,      2433,
      2435,      2436,      2439,      2440,      2441,      2442,      2445,      2446,      2448,
      2450,      2468,      2470,      2471,      2472,      2473,      2474,      2475,      2477,
      2495,      2497,      2499,      2500,      2501,      2502,      2504,      2506,      2522,
      2524,      2525,      2526,      2527,      2528,      2529,      2531,      2533,      2535,
      2549,      2551,      2553,      2554,      2555,      2556,      2557,      2558,      2559,
      2560,      2562,      2564,      2580,      2582,      2584,      2586,      2587,      2588,
      2589,      2590,      2591,      2593,      2615,      2617,      2619,      2620,      2621,
      2622,      2624,      2626,      2648,      2650,      2651,      2652,      2653,      2654,
      2655,      2656,      2657,      2658,      2659,      2661,      2663,      2665,      2679,
      2681,      2683,      2684,      2685,      2686,      2687,      2688,      2689,      2690,
      2692,      2694,      2696,      2698,      2718,      2720,      2722,      2724,      2725,
      2726,      2727,      2728,      2729,      2731,      2747,      2749,      2751,      2752,
      2753,      2754,      2756,      2758,      2779,      2780,      2803,      2804,      2805,
      2806,      2809,      2810,      2821,      2823,      2825,      2826,      2827,      2828,
      2830,      2832,      2844,      2846,      2847,      2848,      2849,      2850,      2851,
      2853,      2867,      2869,      2871,      2872,      2873,      2874,      2876,      2878,
      2890,      2892,      2893,      2894,      2895,      2896,      2897,      2899,      2901,
      2903,      2921,      2923,      2925,      2926,      2927,      2928,      2930,      2932,
** ... 7 like lines cut
*ELSET, ELSET=DES_HOR1
      2353,      2354,      2355,      2356,      2357,      2358,      2359,      2360,      2373,
      2374,      2375,      2376,      2377,      2378,      2379,      2380,      2381,      2382,
      2383,      2384,      2389,      2390,      2391,      2392,      2393,      2394,      2395,
      2396,      2397,      2398,      2399,      2400,      2401,      2402,      2403,      2404,
      2405,      2406,      2407,      2408,      2413,      2414,      2415,      2416,      2417,
      2418,      2419,      2420
*ELSET, ELSET=DES_HOR2
      2327,      2328,      2329,      2330,      2331,      2332,      2333,      2334,      2335,
      2336,      2337,      2338,      2339,      2340,      2341,      2342,      2343,      2344,
      2345,      2346,      2347,      2348,      2349,      2350,      2351,      2352,      2361,
      2362,      2363,      2364,      2365,      2366,      2367,      2368,      2369,      2370,
      2371,      2372,      2385,      2386,      2387,      2388,      2409,      2410,      2411,
      2412,      2421,      2422,      3067,      3068,      3071,      3072,      3073,      3074,
      3079,      3080,      3081,      3082,      3087,      3088,      3089,      3090,      3095,
      3096,      3097,      3098,      3109,      3110,      3111,      3112,      3113,      3114
*ELSET, ELSET=DES_HOR3
      2423,      2424,      2425,      2426,      2427,      2428,      2429,      2430,      2431,
      2432,      2433,      2434,      2435,      2436,      2437,      2438,      2439,      2440,
      2441,      2442,      2443,      2444,      2445,      2446,      2447,      2448,      2449,
      2450,      2451,      2452,      2453,      2454,      2455,      2456,      2457,      2458,
      3045,      3046,      3047,      3048,      3049,      3050,      3051,      3052,      3063,
      3064,      3065,      3066,      3069,      3070,      3075,      3076,      3077,      3078,
      3083,      3084,      3085,      3086,      3091,      3092,      3093,      3094,      3099,
      3100,      3101,      3102,      3103,      3104,      3105,      3106,      3107,      3108
*ELSET, ELSET=DES_HOR4
      2459,      2460,      2461,      2462,      2463,      2464,      2465,      2466,      2467,
      2468,      2469,      2470,      2471,      2472,      2473,      2474,      2475,      2476,
      2477,      2478,      2479,      2480,      2481,      2482,      2483,      2484,      3009,
      3010,      3011,      3012,      3013,      3014,      3015,      3016,      3017,      3018,
      3019,      3020,      3021,      3022,      3023,      3024,      3025,      3026,      3027,
      3028,      3029,      3030,      3031,      3032,      3033,      3034,      3035,      3036,
      3037,      3038,      3039,      3040,      3041,      3042,      3043,      3044,      3053,
      3054,      3055,      3056,      3057,      3058,      3059,      3060,      3061,      3062
*ELSET, ELSET=DES_HOR5
      2485,      2486,      2487,      2488,      2489,      2490,      2491,      2492,      2493,
      2494,      2495,      2496,      2497,      2498,      2499,      2500,      2501,      2502,
      2503,      2504,      2505,      2506,      2507,      2508,      2509,      2510,      2511,
      2512,      2513,      2514,      2515,      2516,      2517,      2518,      2519,      2520,
      2521,      2522,      2523,      2524,      2525,      2526,      2527,      2528,      2529,
      2530,      2531,      2532,      2985,      2986,      2987,      2988,      2989,      2990,
      2991,      2992,      2993,      2994,      2995,      2996,      2997,      2998,      2999,
      3000,      3001,      3002,      3003,      3004,      3005,      3006,      3007,      3008
*ELSET, ELSET=DES_HOR6
      2533,      2534,      2535,      2536,      2537,      2538,      2539,      2540,      2541,
      2542,      2543,      2544,      2545,      2546,      2547,      2548,      2549,      2550,
      2551,      2552,      2553,      2554,      2555,      2556,      2557,      2558,      2559,
      2560,      2561,      2562,      2563,      2564,      2565,      2566,      2567,      2568,
      2569,      2570,      2571,      2572,      2574,      2577,      2578,      2581,      2582,
      2939,      2940,      2941,      2942,      2943,      2944,      2945,      2946,      2949,
      2950,      2953,      2954,      2957,      2958,      2960,      2961,      2962,      2963,
      2964,      2965,      2966,      2967,      2968,      2969,      2970,      2971,      2972,
      2973,      2974,      2975,      2976,      2977,      2978,      2979,      2980,      2981,
      2982,      2983,      2984
*ELSET, ELSET=DES_HOR7
      2573,      2574,      2575,      2576,      2577,      2578,      2579,      2580,      2581,
      2582,      2583,      2584,      2585,      2586,      2587,      2588,      2589,      2590,
      2591,      2592,      2593,      2594,      2595,      2596,      2597,      2598,      2599,
      2600,      2631,      2632,      2633,      2634,      2635,      2636,      2915,      2916,
      2917,      2918,      2919,      2920,      2921,      2922,      2923,      2924,      2925,
      2926,      2927,      2928,      2929,      2930,      2931,      2932,      2933,      2934,
      2935,      2936,      2937,      2938,      2947,      2948,      2949,      2950,      2951,
      2952,      2953,      2954,      2955,      2956,      2957,      2958,      2959,      2960
*ELSET, ELSET=DES_HOR8
      2601,      2602,      2603,      2604,      2605,      2606,      2607,      2608,      2609,
      2610,      2611,      2612,      2613,      2614,      2615,      2616,      2617,      2618,
      2619,      2620,      2621,      2622,      2623,      2624,      2625,      2626,      2627,
      2628,      2629,      2630,      2637,      2638,      2639,      2640,      2641,      2642,
      2643,      2644,      2645,      2646,      2647,      2648,      2649,      2650,      2651,
      2652,      2653,      2654,      2885,      2886,      2887,      2888,      2889,      2890,
      2891,      2892,      2893,      2894,      2895,      2896,      2897,      2898,      2899,
      2900,      2901,      2902,      2903,      2904,      2911,      2912,      2913,      2914
*ELSET, ELSET=DES_HOR9
      2655,      2656,      2657,      2658,      2659,      2660,      2661,      2662,      2663,
      2664,      2665,      2666,      2667,      2668,      2669,      2670,      2671,      2672,
      2687,      2688,      2689,      2690,      2691,      2692,      2693,      2694,      2695,
      2696,      2697,      2698,      2699,      2700,      2701,      2702,      2703,      2704,
      2705,      2706,      2839,      2840,      2841,      2842,      2861,      2862,      2863,
      2864,      2865,      2866,      2867,      2868,      2869,      2870,      2871,      2872,
      2873,      2874,      2875,      2876,      2877,      2878,      2879,      2880,      2881,
      2882,      2883,      2884,      2905,      2906,      2907,      2908,      2909,      2910
*ELSET, ELSET=DES_HOR10
      2673,      2674,      2675,      2676,      2677,      2678,      2679,      2680,      2681,
      2682,      2683,      2684,      2685,      2686,      2707,      2708,      2709,      2710,
      2711,      2712,      2713,      2714,      2715,      2716,      2717,      2718,      2719,
      2720,      2721,      2722,      2723,      2724,      2725,      2726,      2727,      2728,
      2729,      2730,      2731,      2732,      2733,      2734,      2735,      2736,      2737,
      2738,      2769,      2770,      2833,      2834,      2835,      2836,      2837,      2838,
      2843,      2844,      2845,      2846,      2847,      2848,      2849,      2850,      2851,
      2852,      2853,      2854,      2855,      2856,      2857,      2858,      2859,      2860
*ELSET, ELSET=DES_HOR11
      2739,      2740,      2741,      2742,      2743,      2744,      2745,      2746,      2747,
      2748,      2749,      2750,      2751,      2752,      2753,      2754,      2755,      2756,
      2757,      2758,      2759,      2760,      2761,      2762,      2763,      2764,      2765,
      2766,      2767,      2768,      2771,      2772,      2773,      2774,      2775,      2776,
      2777,      2778,      2779,      2780,      2781,      2782,      2803,      2804,      2805,
      2806,      2807,      2808,      2809,      2810,      2811,      2812,      2813,      2814,
      2815,      2816,      2817,      2818,      2819,      2820,      2821,      2822,      2823,
      2824,      2825,      2826,      2827,      2828,      2829,      2830,      2831,      2832
*ELSET, ELSET=DES_HOR12
      2321,      2322,      2323,      2324,      2325,      2326,      2783,      2784,      2785,
      2786,      2787,      2788,      2789,      2790,      2791,      2792,      2793,      2794,
      2795,      2796,      2797,      2798,      2799,      2800,      2801,      2802,      3115,
      3116,      3117,      3118,      3119,      3120,      3121,      3122,      3123,      3124,
      3125,      3126,      3127,      3128,      3129,      3130,      3131,      3132,      3133,
      3134,      3135,      3136
*ELSET, ELSET=DES_VER1
      2348,      2350,      2351,      2352,      2383,      2384,      2385,      2386,      2389,
      2390,      2391,      2392,      2397,      2399,      2421,      2422,      2423,      2424,
      2425,      2426,      2428,      2430,      2480,      2482,      2483,      2484,      2485,
      2486,      2488,      2490,      2492,      2494,      2538,      2540,      2541,      2542,
      2543,      2544,      2546,      2548,      2596,      2598,      2599,      2600,      2601,
      2602,      2604,      2606,      2608,      2610,      2612,      2614,      2668,      2670,
      2671,      2672,      2673,      2674,      2676,      2678,      2734,      2736,      2737,
      2738,      2739,      2740,      2741,      2742,      2744,      2746,      2795,      2797,
      2799,      2800,      2801,      2802,      2811,      2812,      2815,      2816,      2818,
      2820,      2856,      2858,      2859,      2860,      2861,      2862,      2864,      2866,
      2906,      2908,      2909,      2910,      2911,      2912,      2913,      2914,      2915,
      2916,      2918,      2920,      2956,      2958,      2959,      2960,      2961,      2962,
      2964,      2966,      3002,      3004,      3005,      3006,      3007,      3008,      3009,
      3010,      3012,      3014,      3058,      3060,      3061,      3062,      3065,      3066,
      3067,      3068,      3069,      3070,      3073,      3074,      3076,      3078,      3115,
      3117,
*ELSET, ELSET=DES_VER2
      2344,      2346,      2347,      2349,      2379,      2380,      2381,      2382,      2387,
      2388,      2398,      2400,      2401,      2403,      2409,      2410,      2427,      2429,
      2432,      2434,      2437,      2438,      2476,      2478,      2479,      2481,      2487,
      2489,      2491,      2493,      2496,      2498,      2530,      2532,      2534,      2536,
      2537,      2539,      2545,      2547,      2550,      2552,      2592,      2594,      2595,
      2597,      2603,      2605,      2607,      2609,      2611,      2613,      2616,      2618,
      2660,      2662,      2664,      2666,      2667,      2669,      2675,      2677,      2680,
      2682,      2730,      2732,      2733,      2735,      2743,      2745,      2748,      2750,
      2791,      2793,      2796,      2798,      2807,      2808,      2813,      2814,      2817,
      2819,      2822,      2824,      2852,      2854,      2855,      2857,      2863,      2865,
      2868,      2870,      2898,      2900,      2902,      2904,      2905,      2907,      2917,
      2919,      2922,      2924,      2952,      2954,      2955,      2957,      2963,      2965,
      2968,      2970,      2998,      3000,      3001,      3003,      3011,      3013,      3016,
      3018,      3054,      3056,      3057,      3059,      3063,      3064,      3071,      3072,
      3075,      3077,      3081,      3082,      3084,      3086,      3116,      3118,      3119,
      3121,
*ELSET, ELSET=DES_VER3
      2340,      2342,      2343,      2345,      2369,      2370,      2375,      2376,      2377,
      2378,      2402,      2404,      2405,      2407,      2411,      2412,      2431,      2433,
      2435,      2436,      2441,      2442,      2472,      2474,      2475,      2477,      2495,
      2497,      2500,      2502,      2526,      2528,      2529,      2531,      2533,      2535,
      2549,      2551,      2554,      2556,      2558,      2560,      2588,      2590,      2591,
      2593,      2615,      2617,      2620,      2622,      2652,      2654,      2656,      2658,
      2659,      2661,      2663,      2665,      2679,      2681,      2684,      2686,      2688,
      2690,      2726,      2728,      2729,      2731,      2747,      2749,      2752,      2754,
      2787,      2789,      2792,      2794,      2803,      2804,      2809,      2810,      2821,
      2823,      2826,      2828,      2848,      2850,      2851,      2853,      2867,      2869,
      2872,      2874,      2894,      2896,      2897,      2899,      2901,      2903,      2921,
      2923,      2926,      2928,      2948,      2950,      2951,      2953,      2967,      2969,
      2972,      2974,      2994,      2996,      2997,      2999,      3015,      3017,      3020,
      3022,      3024,      3026,      3050,      3052,      3053,      3055,      3079,      3080,
      3083,      3085,      3089,      3090,      3092,      3094,      3120,      3122,      3123,
      3125,
*ELSET, ELSET=DES_VER4
      2336,      2338,      2339,      2341,      2365,      2366,      2371,      2372,      2373,
      2374,      2393,      2395,      2406,      2408,      2415,      2416,      2439,      2440,
      2445,      2446,      2448,      2450,      2468,      2470,      2471,      2473,      2499,
      2501,      2504,      2506,      2522,      2524,      2525,      2527,      2553,      2555,
      2557,      2559,      2562,      2564,      2580,      2582,      2584,      2586,      2587,
      2589,      2619,      2621,      2624,      2626,      2648,      2650,      2651,      2653,
      2655,      2657,      2683,      2685,      2687,      2689,      2692,      2694,      2696,
      2698,      2718,      2720,      2722,      2724,      2725,      2727,      2751,      2753,
      2756,      2758,      2779,      2780,      2783,      2785,      2788,      2790,      2805,
      2806,      2825,      2827,      2830,      2832,      2844,      2846,      2847,      2849,
      2871,      2873,      2876,      2878,      2890,      2892,      2893,      2895,      2925,
      2927,      2930,      2932,      2944,      2946,      2947,      2949,      2971,      2973,
      2976,      2978,      2990,      2992,      2993,      2995,      3019,      3021,      3023,
      3025,      3028,      3030,      3042,      3044,      3049,      3051,      3087,      3088,
      3091,      3093,      3097,      3098,      3100,      3102,      3124,      3126,      3127,
      3129,
*ELSET, ELSET=DES_VER5
      2323,      2325,      2332,      2334,      2335,      2337,      2359,      2360,      2361,
      2362,      2367,      2368,      2394,      2396,      2413,      2414,      2417,      2419,
      2443,      2444,      2447,      2449,      2452,      2454,      2464,      2466,      2467,
      2469,      2503,      2505,      2508,      2510,      2518,      2520,      2521,      2523,
      2561,      2563,      2566,      2568,      2576,      2578,      2579,      2581,      2583,
      2585,      2623,      2625,      2628,      2630,      2632,      2634,      2644,      2646,
      2647,      2649,      2691,      2693,      2695,      2697,      2700,      2702,      2710,
      2712,      2714,      2716,      2717,      2719,      2721,      2723,      2755,      2757,
      2760,      2762,      2764,      2766,      2775,      2776,      2781,      2782,      2784,
      2786,      2829,      2831,      2834,      2836,      2840,      2842,      2843,      2845,
      2875,      2877,      2880,      2882,      2886,      2888,      2889,      2891,      2929,
      2931,      2934,      2936,      2940,      2942,      2943,      2945,      2975,      2977,
      2980,      2982,      2986,      2988,      2989,      2991,      3027,      3029,      3032,
      3034,      3038,      3040,      3041,      3043,      3047,      3048,      3095,      3096,
      3099,      3101,      3104,      3106,      3111,      3112,      3128,      3130,      3131,
      3133,
*ELSET, ELSET=DES_VER6
      2321,      2322,      2324,      2326,      2327,      2328,      2329,      2330,      2331,
      2333,      2353,      2354,      2355,      2356,      2357,      2358,      2363,      2364,
      2418,      2420,      2451,      2453,      2455,      2456,      2457,      2458,      2459,
      2460,      2461,      2462,      2463,      2465,      2507,      2509,      2511,      2512,
      2513,      2514,      2515,      2516,      2517,      2519,      2565,      2567,      2569,
      2570,      2571,      2572,      2573,      2574,      2575,      2577,      2627,      2629,
      2631,      2633,      2635,      2636,      2637,      2638,      2639,      2640,      2641,
      2642,      2643,      2645,      2699,      2701,      2703,      2704,      2705,      2706,
      2707,      2708,      2709,      2711,      2713,      2715,      2759,      2761,      2763,
      2765,      2767,      2768,      2769,      2770,      2771,      2772,      2773,      2774,
      2777,      2778,      2833,      2835,      2837,      2838,      2839,      2841,      2879,
      2881,      2883,      2884,      2885,      2887,      2933,      2935,      2937,      2938,
      2939,      2941,      2979,      2981,      2983,      2984,      2985,      2987,      3031,
      3033,      3035,      3036,      3037,      3039,      3045,      3046,      3103,      3105,
      3107,      3108,      3109,      3110,      3113,      3114,      3132,      3134,      3135,
      3136,
*SHELL SECTION,ELSET=Property_2,MATERIAL=Material 1
            1.0,
*SHELL SECTION,ELSET=Property_3,MATERIAL=Material 1
            1.0,
*MASS, ELSET=MASS_1
          0.001,
*MATERIAL,NAME=Material 1
*ELASTIC
  2.06e+05,       0.3
*DENSITY
 7.840e-09,
*COUPLING, CONSTRAINT NAME=constraint_1, REF NODE=5, SURFACE=constraint_1_surface
*KINEMATIC
    1,    6
*SURFACE, NAME=constraint_1_surface, TYPE=NODE
       798,  1.000000
      3281,  1.000000
       795,  1.000000
      3282,  1.000000
       793,  1.000000
      3283,  1.000000
       791,  1.000000
      3284,  1.000000
       789,  1.000000
      3285,  1.000000
       787,  1.000000
      3286,  1.000000
       785,  1.000000
      3287,  1.000000
       783,  1.000000
      3288,  1.000000
       771,  1.000000
      3289,  1.000000
       772,  1.000000
      3290,  1.000000
** ... 16 like lines cut
*COUPLING, CONSTRAINT NAME=constraint_2, REF NODE=1, SURFACE=constraint_2_surface
*KINEMATIC
    1,    6
*SURFACE, NAME=constraint_2_surface, TYPE=NODE
       622,  1.000000
      3235,  1.000000
       635,  1.000000
      3236,  1.000000
       860,  1.000000
      3237,  1.000000
       634,  1.000000
      3232,  1.000000
       621,  1.000000
      3233,  1.000000
       862,  1.000000
      3234,  1.000000
*COUPLING, CONSTRAINT NAME=constraint_3, REF NODE=2, SURFACE=constraint_3_surface
*KINEMATIC
    1,    6
*SURFACE, NAME=constraint_3_surface, TYPE=NODE
       629,  1.000000
      3219,  1.000000
       846,  1.000000
      3218,  1.000000
       628,  1.000000
      3217,  1.000000
       641,  1.000000
      3216,  1.000000
       844,  1.000000
      3215,  1.000000
       642,  1.000000
      3214,  1.000000
*COUPLING, CONSTRAINT NAME=constraint_4, REF NODE=4, SURFACE=constraint_4_surface
*KINEMATIC
    1,    6
*SURFACE, NAME=constraint_4_surface, TYPE=NODE
      3222,  1.000000
       681,  1.000000
      3223,  1.000000
       694,  1.000000
      3224,  1.000000
       840,  1.000000
      3225,  1.000000
       693,  1.000000
      3220,  1.000000
       680,  1.000000
      3221,  1.000000
       842,  1.000000
*COUPLING, CONSTRAINT NAME=constraint_5, REF NODE=3, SURFACE=constraint_5_surface
*KINEMATIC
    1,    6
*SURFACE, NAME=constraint_5_surface, TYPE=NODE
      3228,  1.000000
       674,  1.000000
      3229,  1.000000
       687,  1.000000
      3230,  1.000000
       856,  1.000000
      3231,  1.000000
       686,  1.000000
      3226,  1.000000
       673,  1.000000
      3227,  1.000000
       858,  1.000000
*BOUNDARY, TYPE=DISPLACEMENT, OP=NEW
   1,        1,        6,                       0.
   2,        1,        6,                       0.
   3,        1,        6,                       0.
   4,        1,        6,                       0.
*STEP, PERTURBATION
*STATIC
*CLOAD, OP=NEW
       5,        1,                    -2500.
*OUTPUT, FIELD, FREQUENCY=999
*NODE OUTPUT
U,
*ELEMENT OUTPUT
E,
S,
STH,
*END STEP
*STEP, PERTURBATION
*STATIC
*CLOAD, OP=NEW
       5,        4,                     8000.
**       5,        4,                     80000.	   
*OUTPUT, FIELD, FREQUENCY=999
*NODE OUTPUT
U,
*ELEMENT OUTPUT
E,
S,
*END STEP
