*Heading
**
** PARTS
**
*Part, name=plate
*Node
      1,        3.375,  0.419999987,    2.6400001
      2,        3.375,           0.,   2.70000005
      3,        3.375,           0.,           0.
      4,        3.375,  0.419999987,           0.
      5,        3.375,  0.419999987,   2.75999999
      6,        3.375,  0.419999987,   2.70000005
      7,           0.,  0.419999987,   2.70000005
      8,           0.,           0.,   2.70000005
      9,        0.375,  0.100000001,   2.70000005
     10,        0.375,           0.,   2.70000005
     11,        1.125,  0.100000001,   2.70000005
     12,        1.125,           0.,   2.70000005
     13,        1.875,  0.100000001,   2.70000005
     14,        1.875,           0.,   2.70000005
     15,        2.625,  0.100000001,   2.70000005
     16,        2.625,           0.,   2.70000005
     17,    3.2750001,  0.419999987,   2.70000005
     18,    3.4749999,  0.419999987,   2.70000005
     19,    3.4749999,  0.419999987,    5.4000001
     20,        3.375,           0.,    5.4000001
** ... 1972 like lines cut
*Element, type=S4
 1,    1,  147, 1221,  166
 2,  147,  148, 1222, 1221
 3,  148,    2,  149, 1222
 4,  166, 1221, 1223,  165
 5, 1221, 1222, 1224, 1223
 6, 1222,  149,  150, 1224
 7,  165, 1223, 1225,  164
 8, 1223, 1224, 1226, 1225
 9, 1224,  150,  151, 1226
10,  164, 1225, 1227,  163
11, 1225, 1226, 1228, 1227
12, 1226,  151,  152, 1228
13,  163, 1227, 1229,  162
14, 1227, 1228, 1230, 1229
15, 1228,  152,  153, 1230
16,  162, 1229, 1231,  161
17, 1229, 1230, 1232, 1231
18, 1230,  153,  154, 1232
19,  161, 1231, 1233,  160
20, 1231, 1232, 1234, 1233
** ... 1912 like lines cut
*Element, type=B31
1945, 109, 583
1946, 583, 584
1947, 584, 585
1948, 585, 586
1949, 586, 587
1950, 587, 588
1951, 588, 589
1952, 589, 590
1953, 590,   9
1954, 100, 591
1955, 591, 592
1956, 592, 593
1957, 593, 594
1958, 594, 595
1959, 595, 596
1960, 596, 597
1961, 597, 598
1962, 598, 110
1963,   9, 615
1964, 615, 616
** ... 268 like lines cut
*Element, type=S3
28, 168,   2, 169
73, 169,   2, 197
145, 246,  20, 247
175, 225,  20, 247
178, 268,  33, 269
223, 298,  33, 269
334, 247,  20, 200
477, 171,   2, 169
536, 269,  33, 272
1017, 169,   2, 148
1047, 247,  20, 258
1905, 269,  33, 236
*Elset, elset=main
  608,  609,  610,  611,  612,  613,  614,  615,  616,  617,  618,  619,  620,  621,  622,  623
  624,  625,  626,  627,  628,  629,  630,  631,  632,  633,  634,  635,  636,  637,  638,  639
  640,  641,  642,  643,  644,  645,  646,  647,  648,  649,  650,  651,  652,  653,  654,  655
  656,  657,  658,  659,  660,  661,  689,  690,  691,  692,  693,  694,  695,  696,  697,  698
  699,  700,  701,  702,  703,  704,  705,  706,  707,  708,  709,  710,  711,  712,  713,  714
  715,  716,  717,  718,  719,  720,  721,  722,  723,  724,  725,  726,  727,  728,  729,  730
  731,  732,  733,  734,  735,  736,  737,  738,  739,  740,  741,  742,  743,  744,  745,  746
  747,  748,  749,  750,  751,  752,  753,  754,  755,  756,  757,  758,  759,  760,  761,  762
  763,  764,  765,  766,  767,  768,  769,  817,  818,  819,  820,  821,  822,  823,  824,  825
  826,  827,  828,  829,  830,  831,  832,  833,  834,  835,  836,  837,  838,  839,  840,  841
  842,  843,  844,  845,  846,  847,  848,  849,  850,  851,  852,  853,  854,  855,  856,  857
  858,  859,  860,  861,  862,  863,  864,  865,  866,  867,  868,  869,  870,  871,  872,  873
  874,  875,  876,  877,  878,  879,  880,  881,  882,  883,  884,  885,  886,  887,  888,  889
  890,  891,  892,  893,  894,  895,  896,  897,  936,  937,  938,  939,  940,  941,  942,  943
  944,  945,  946,  947,  948,  949,  950,  951,  952,  953,  954,  955,  956,  957,  958,  959
  960,  961,  962,  963,  964,  965,  966,  967,  968,  969,  970,  971,  972,  973,  974,  975
  976,  977,  978,  979,  980,  981,  982,  983,  984,  985,  986,  987,  988,  989,  990,  991
  992,  993,  994,  995,  996,  997,  998,  999, 1000, 1001, 1002, 1003, 1004, 1005, 1006, 1007
 1008, 1009, 1010, 1011, 1012, 1013, 1014, 1015, 1016, 1050, 1051, 1052, 1053, 1054, 1055, 1056
 1057, 1058, 1059, 1060, 1061, 1062, 1063, 1064, 1065, 1066, 1067, 1068, 1069, 1070, 1071, 1072
** ... 43 like lines cut
*Elset, elset=small
  581,  582,  583,  584,  585,  586,  587,  588,  589,  590,  591,  592,  593,  594,  595,  596
  597,  598,  599,  600,  601,  602,  603,  604,  605,  606,  607,  662,  663,  664,  665,  666
  667,  668,  669,  670,  671,  672,  673,  674,  675,  676,  677,  678,  679,  680,  681,  682
  683,  684,  685,  686,  687,  688,  790,  791,  792,  793,  794,  795,  796,  797,  798,  799
  800,  801,  802,  803,  804,  805,  806,  807,  808,  809,  810,  811,  812,  813,  814,  815
  816,  909,  910,  911,  912,  913,  914,  915,  916,  917,  918,  919,  920,  921,  922,  923
  924,  925,  926,  927,  928,  929,  930,  931,  932,  933,  934,  935, 1131, 1132, 1133, 1134
 1135, 1136, 1137, 1138, 1139, 1140, 1141, 1142, 1143, 1144, 1145, 1146, 1147, 1148, 1149, 1150
 1151, 1152, 1153, 1154, 1155, 1156, 1157, 1239, 1240, 1241, 1242, 1243, 1244, 1245, 1246, 1247
 1248, 1249, 1250, 1251, 1252, 1253, 1254, 1255, 1256, 1257, 1258, 1259, 1260, 1261, 1262, 1263
 1264, 1265, 1347, 1348, 1349, 1350, 1351, 1352, 1353, 1354, 1355, 1356, 1357, 1358, 1359, 1360
 1361, 1362, 1363, 1364, 1365, 1366, 1367, 1368, 1369, 1370, 1371, 1372, 1373, 1455, 1456, 1457
 1458, 1459, 1460, 1461, 1462, 1463, 1464, 1465, 1466, 1467, 1468, 1469, 1470, 1471, 1472, 1473
 1474, 1475, 1476, 1477, 1478, 1479, 1480, 1481, 1869, 1870, 1871, 1872, 1873, 1874, 1875, 1876
 1877, 1878, 1879, 1880, 1881, 1882, 1883, 1884, 1885, 1886, 1887, 1888, 1889, 1890, 1891, 1892
 1893, 1894, 1895, 1896, 1897, 1898, 1899, 1900, 1901, 1902, 1903, 1904, 1909, 1910, 1911, 1912
 1913, 1914, 1915, 1916, 1917, 1918, 1919, 1920, 1921, 1922, 1923, 1924, 1925, 1926, 1927, 1928
 1929, 1930, 1931, 1932, 1933, 1934, 1935, 1936, 1937, 1938, 1939, 1940, 1941, 1942, 1943, 1944
*Elset, elset=large
    1,    2,    3,    4,    5,    6,    7,    8,    9,   10,   11,   12,   13,   14,   15,   16
   17,   18,   19,   20,   21,   22,   23,   24,   25,   26,   27,   28,   29,   30,  118,  119
  120,  121,  122,  123,  124,  125,  126,  127,  128,  129,  130,  131,  132,  133,  134,  135
  136,  137,  138,  139,  140,  141,  142,  143,  144,  148,  149,  150,  151,  152,  153,  154
  155,  156,  157,  158,  159,  160,  161,  162,  163,  164,  165,  166,  167,  168,  169,  170
  171,  172,  173,  174,  175,  176,  177,  223,  224,  225,  226,  227,  228,  229,  230,  231
  232,  233,  234,  235,  236,  237,  238,  239,  240,  241,  242,  243,  244,  245,  246,  247
  248,  249,  250,  251,  252,  253,  254,  255,  256,  257,  258,  259,  260,  261,  262,  263
  264,  265,  266,  267,  268,  269,  270,  271,  272,  273,  274,  275,  276,  277,  278,  279
  280,  281,  282,  283,  284,  285,  286,  287,  288,  289,  290,  291,  292,  293,  294,  295
  296,  297,  298,  299,  300,  301,  302,  303,  304,  305,  306,  307,  308,  309,  310,  311
  312,  313,  314,  315,  316,  317,  318,  319,  320,  321,  322,  323,  324,  325,  326,  327
  328,  329,  330,  331,  332,  333,  379,  380,  381,  382,  383,  384,  385,  386,  387,  388
  389,  390,  391,  392,  393,  394,  395,  396,  397,  398,  399,  400,  401,  402,  403,  404
  405,  406,  407,  408,  409,  410,  411,  412,  413,  414,  415,  416,  417,  418,  419,  420
  421,  422,  423,  424,  425,  426,  427,  428,  429,  430,  431,  432,  433,  434,  480,  481
  482,  483,  484,  485,  486,  487,  488,  489,  490,  491,  492,  493,  494,  495,  496,  497
  498,  499,  500,  501,  502,  503,  504,  505,  506,  507,  508,  509,  510,  511,  512,  513
  514,  515,  516,  517,  518,  519,  520,  521,  522,  523,  524,  525,  526,  527,  528,  529
  530,  531,  532,  533,  534,  535,  770,  771,  772,  773,  774,  775,  776,  777,  778,  779
** ... 4 like lines cut
*Elset, elset=side
  31,  32,  33,  34,  35,  36,  37,  38,  39,  40,  41,  42,  43,  44,  45,  46
  47,  48,  49,  50,  51,  52,  53,  54,  55,  56,  57,  58,  59,  60,  61,  62
  63,  64,  65,  66,  67,  68,  69,  70,  71,  72,  73,  74,  75,  76,  77,  78
  79,  80,  81,  82,  83,  84,  85,  86,  87,  88,  89,  90,  91,  92,  93,  94
  95,  96,  97,  98,  99, 100, 101, 102, 103, 104, 105, 106, 107, 108, 109, 110
 111, 112, 113, 114, 115, 116, 117, 145, 146, 147, 178, 179, 180, 181, 182, 183
 184, 185, 186, 187, 188, 189, 190, 191, 192, 193, 194, 195, 196, 197, 198, 199
 200, 201, 202, 203, 204, 205, 206, 207, 208, 209, 210, 211, 212, 213, 214, 215
 216, 217, 218, 219, 220, 221, 222, 334, 335, 336, 337, 338, 339, 340, 341, 342
 343, 344, 345, 346, 347, 348, 349, 350, 351, 352, 353, 354, 355, 356, 357, 358
 359, 360, 361, 362, 363, 364, 365, 366, 367, 368, 369, 370, 371, 372, 373, 374
 375, 376, 377, 378, 435, 436, 437, 438, 439, 440, 441, 442, 443, 444, 445, 446
 447, 448, 449, 450, 451, 452, 453, 454, 455, 456, 457, 458, 459, 460, 461, 462
 463, 464, 465, 466, 467, 468, 469, 470, 471, 472, 473, 474, 475, 476, 477, 478
 479, 536, 537, 538, 539, 540, 541, 542, 543, 544, 545, 546, 547, 548, 549, 550
 551, 552, 553, 554, 555, 556, 557, 558, 559, 560, 561, 562, 563, 564, 565, 566
 567, 568, 569, 570, 571, 572, 573, 574, 575, 576, 577, 578, 579, 580
*Elset, elset=beams, generate
 1945,  2232,     1
** Section: large
*Shell Section, elset=large, material=metal
0.01, 3
** Section: side
*Shell Section, elset=side, material=metal
0.007, 3
** Section: small
*Shell Section, elset=small, material=metal
0.006, 3
** Section: main
*Shell Section, elset=main, material=metal
0.005, 3
** Section: beams  Profile: rect
*Beam Section, elset=beams, material=metal, temperature=GRADIENTS, section=RECT
0.015, 0.015
1.,0.,0.
*Element, type=Spring1, elset=spring
2233, 6
2234, 38
*Spring, elset=spring
2
5.3e+08
*End Part
**  
**
** ASSEMBLY
**
*Assembly, name=Assembly
**  
*Instance, name=plate-1, part=plate
*End Instance
**  
*Nset, nset=load, instance=plate-1
 128,
*Nset, nset=back-ctr, instance=plate-1
 3,
*Nset, nset=front, instance=plate-1
   62,   63,   65,  110,  111,  112,  116,  117,  121,  122,  126,  127,  131,  132,  135,  136
  139,  140,  143,  144,  146,  623,  705,  706,  781,  782,  849,  850,  861,  862,  871,  872
  923,  924,  983,  984, 1043, 1044, 1103, 1104, 1132
*Nset, nset=back, instance=plate-1
    3,    4,  108,  109,  113,  114,  115,  118,  119,  120,  123,  124,  125,  129,  130,  133
  134,  137,  138,  141,  142,  145,  157,  158,  640,  707,  708,  783,  784,  851,  852,  873
  874,  925,  926,  985,  986, 1045, 1046, 1105, 1106, 1115
*Nset, nset=sides, instance=plate-1
    7,    8,   29,   30,   48,   49,   66,   67,   68,   69,   70,   71,   80,   81,   82,   83
   84,   93,   94,   95,   96,   97,   98,   99,  112,  113,  145,  146,  186,  187,  210,  211
  282,  283,  412,  413,  497,  498,  564,  565,  624,  625,  626,  627,  628,  629,  630,  631
  632,  633,  634,  635,  636,  637,  638,  639,  649,  650,  651,  652,  653,  654,  655,  656
 1116, 1117, 1118, 1119, 1120, 1121, 1122, 1123, 1124, 1125, 1126, 1127, 1128, 1129, 1130, 1131
 1133, 1134, 1135, 1136, 1137, 1138, 1139, 1140, 1141, 1142, 1143, 1144, 1145, 1146, 1147, 1148
 1149, 1150, 1151, 1152, 1153, 1154, 1155, 1156
*Elset, elset=shells, instance=plate-1, generate
    1,  1944,     1
*End Assembly
** 
** MATERIALS
** 
*Material, name=metal
*Density
7850.,
*Elastic
 2.1e+11, 0.3
*Plastic
 2.35259e+08,      0.
   4.719e+08, 0.18837
