*Heading
** Job name: gear-shaft Model name: Model-1
** Generated by: Abaqus/CAE 6.11-1
*Preprint, echo=NO, model=NO, history=NO, contact=NO
**
** PARTS
**
*Part, name=gear-2d
*End Part
**  
*Part, name=shaft
*Node
      1,          13.,           0.
      2,          13.,         -1.5
      3,   9.88685989,         -1.5
      4,   9.88685989,          1.5
      5,          13.,          1.5
      6,   11.9622869,         -1.5
      7,   10.9245729,         -1.5
      8,   9.68845844,   2.47664666
      9,    9.3938303,    3.4286952
     10,   9.00590324,   4.34669018
     11,   8.52852821,   5.22151327
     12,   7.96644878,   6.04447651
     13,   7.32524586,   6.80740595
     14,   6.61128855,   7.50272369
     15,    5.8316679,   8.12352467
     16,    4.9941268,   8.66364193
     17,   4.10698414,   9.11771297
     18,   3.17905068,   9.48122501
     19,   2.21954298,    9.7505703
     20,   1.23799062,   9.92307281
** ... 48 like lines cut
*Element, type=R2D2
1, 1, 2
2, 2, 6
3, 6, 7
4, 7, 3
 5,  4,  8
 6,  8,  9
 7,  9, 10
 8, 10, 11
 9, 11, 12
10, 12, 13
11, 13, 14
12, 14, 15
13, 15, 16
14, 16, 17
15, 17, 18
16, 18, 19
17, 19, 20
18, 20, 21
19, 21, 22
20, 22, 23
** ... 48 like lines cut
*Node
     69,           0.,           0.,           0.
*Nset, nset=shaft-RefPt_, internal
69, 
*Nset, nset=shaft-RP
 69,
*Elset, elset=shaft, generate
  1,  68,   1
*End Part
**  
**
** ASSEMBLY
**
*Assembly, name=Assembly
**  
*Instance, name=gear-2d-1, part=gear-2d
*Node
      1,   12.9131718,          1.5
      2,   12.9131718,         -1.5
      3,   9.88685989,         -1.5
      4,   9.88685989,          1.5
      5,  -49.7503242,  -4.99052334
      6,  -49.7503242,   4.99052334
      7,         -59.,           3.
      8,         -59.,          -3.
      9,   -48.456871,   12.3260546
     10,  -45.0431519,   21.7051716
     11,  -54.4158058,   22.9982662
     12,   -56.467926,   17.3601112
     13,  -41.3188057,   28.1559296
     14,  -34.9031105,   35.8018532
     15,   -43.268261,   40.2226028
     16,  -47.1249847,   35.6263351
     17,  -29.1970825,   40.5897827
     18,  -20.5532417,    45.580307
     19,  -26.9019241,   52.5954971
     20,  -32.0980759,   49.5954971
** ... 5795 like lines cut
*Element, type=CPE4R
  1,    1,   84, 1052,  395
  2,   84,   85, 1053, 1052
  3,   85,   86, 1054, 1053
  4,   86,   87, 1055, 1054
  5,   87,   88, 1056, 1055
  6,   88,   89, 1057, 1056
  7,   89,   90, 1058, 1057
  8,   90,   91, 1059, 1058
  9,   91,   92, 1060, 1059
 10,   92,   93, 1061, 1060
 11,   93,   94, 1062, 1061
 12,   94,   95, 1063, 1062
 13,   95,   96, 1064, 1063
 14,   96,   97, 1065, 1064
 15,   97,   98, 1066, 1065
 16,   98,   99, 1067, 1066
 17,   99,  100, 1068, 1067
 18,  100,  101, 1069, 1068
 19,  101,  102, 1070, 1069
 20,  102,  103, 1071, 1070
** ... 5488 like lines cut
*Nset, nset=_PickedSet4, internal, generate
    1,  5815,     1
*Elset, elset=_PickedSet4, internal, generate
    1,  5508,     1
** Section: steelSection
*Solid Section, elset=_PickedSet4, material=steel
1.,
*End Instance
**  
*Instance, name=shaft-1, part=shaft
*End Instance
**  
*Nset, nset=design-area, instance=gear-2d-1
    1,    2,   41,   42,   43,   44,   83,   84,   85,   86,   87,   88,   89,   90,   91,   92
   93,   94,   95,   96,   97,   98,   99,  100,  101,  102,  103,  104,  105,  106,  107,  108
  109,  110,  111,  112,  113,  114,  115,  116,  117,  118,  119,  120,  121,  122,  123,  124
  125,  126,  127,  128,  129,  130,  131,  132,  133,  134,  135,  136,  137,  138,  139,  140
  141,  142,  143,  144,  145,  146,  147,  148,  149,  150,  151,  152,  153,  154,  155,  156
  157,  158,  159,  160,  161,  162,  163,  164,  165,  166,  167,  168,  169,  170,  171,  172
  173,  174,  175,  176,  177,  178,  179,  180,  181,  182,  183,  184,  185,  186,  187,  188
  189,  190,  191,  192,  193,  194,  195,  196,  197,  198,  199,  200,  201,  202,  203,  204
  205,  206,  207,  208,  209,  210,  211,  212,  213,  214,  215,  216,  217,  218,  219,  220
  221,  222,  223,  224,  225,  226,  227,  228,  229,  230,  231,  232,  233,  234,  235,  236
  237,  238,  594,  595,  596,  597,  598,  599,  600,  601,  602,  603,  604,  605,  606,  607
  608,  609,  610,  611,  612,  613,  614,  615,  616,  617,  618,  619,  620,  621,  622,  623
  624,  625,  626,  627,  628,  629,  630,  631,  632,  633,  634,  635,  636,  637,  638,  639
  640,  641,  642,  643,  644,  645,  646,  647,  648,  649,  650,  651,  652,  653,  654,  655
  656,  657,  658,  659,  660,  661,  662,  663,  664,  665,  666,  667,  668,  669,  670,  671
  672,  673,  674,  675,  676,  677,  678,  679,  680,  681,  682,  683,  684,  685,  686,  687
  688,  689,  690,  691,  692,  693,  694,  695,  696,  697,  698,  699,  700,  701,  702,  703
  704,  705,  706,  707,  708,  709,  710,  711,  712,  713,  714,  715,  716,  717,  718,  719
  720,  721,  722,  723,  724,  725,  726,  727,  728,  729,  730,  731,  732,  733,  734,  735
  736,  737,  738,  739,  740,  741,  742,  743,  744,  745,  746,  747,  748,  749,  750,  751
** ... 250 like lines cut
*Elset, elset=design-area, instance=gear-2d-1
  673,  674,  675,  676,  677,  678,  679,  680,  681,  682,  683,  684,  685,  686,  687,  688
  689,  690,  691,  692,  693,  694,  695,  696,  697,  698,  699,  700,  701,  702,  703,  704
  705,  706,  707,  708,  709,  710,  711,  712,  713,  714,  715,  716,  717,  718,  719,  720
  721,  722,  723,  724,  725,  726,  727,  728,  729,  730,  731,  732,  733,  734,  735,  736
  737,  738,  739,  740,  741,  742,  743,  744,  745,  746,  747,  748,  749,  750,  751,  752
  753,  754,  755,  756,  757,  758,  759,  760,  761,  762,  763,  764,  765,  766,  767,  768
  769,  770,  771,  772,  773,  774,  775,  776,  777,  778,  779,  780,  781,  782,  783,  784
  785,  786,  787,  788,  789,  790,  791,  792,  793,  794,  795,  796,  797,  798,  799,  800
  801,  802,  803,  804,  805,  806,  807,  808,  809,  810,  811,  812,  813,  814,  815,  816
  817,  818,  819,  820,  821,  822,  823,  824,  825,  826,  827,  828,  829,  830,  831,  832
  833,  834,  835,  836,  837,  838,  839,  840,  841,  842,  843,  844,  845,  846,  847,  848
  849,  850,  851,  852,  853,  854,  855,  856,  857,  858,  859,  860,  861,  862,  863,  864
  865,  866,  867,  868,  869,  870,  871,  872,  873,  874,  875,  876,  877,  878,  879,  880
  881,  882,  883,  884,  885,  886,  887,  888,  889,  890,  891,  892,  893,  894,  895,  896
  897,  898,  899,  900,  901,  902,  903,  904,  905,  906,  907,  908,  909,  910,  911,  912
  913,  914,  915,  916,  917,  918,  919,  920,  921,  922,  923,  924,  925,  926,  927,  928
  929,  930,  931,  932,  933,  934,  935,  936,  937,  938,  939,  940,  941,  942,  943,  944
  945,  946,  947,  948,  949,  950,  951,  952,  953,  954,  955,  956,  957,  958,  959,  960
  961,  962,  963,  964,  965,  966,  967,  968,  969,  970,  971,  972,  973,  974,  975,  976
  977,  978,  979,  980,  981,  982,  983,  984,  985,  986,  987,  988,  989,  990,  991,  992
** ... 240 like lines cut
*Nset, nset=frozen-area, instance=gear-2d-1
    1,    2,    3,    4,    5,    6,    7,    8,    9,   10,   11,   12,   13,   14,   15,   16
   17,   18,   19,   20,   21,   22,   23,   24,   25,   26,   27,   28,   29,   30,   31,   32
   33,   34,   35,   36,   37,   38,   39,   40,   42,   44,   45,   46,   47,   48,   49,   50
   51,   52,   53,   54,   55,   56,   57,   58,   59,   60,   61,   62,   63,   64,   65,   66
   67,   68,   69,   70,   71,   72,   73,   74,   75,   76,   77,   78,   79,   80,   81,   82
   84,   85,   86,   87,   88,   89,   90,   91,   92,   93,   94,   95,   96,   97,   98,   99
  100,  101,  102,  103,  104,  105,  106,  107,  108,  109,  110,  111,  112,  113,  114,  115
  116,  117,  118,  119,  120,  121,  122,  123,  124,  125,  126,  127,  128,  129,  130,  131
  132,  133,  134,  135,  136,  137,  138,  139,  140,  141,  142,  143,  144,  145,  146,  147
  148,  149,  150,  151,  152,  153,  154,  155,  156,  157,  158,  159,  160,  161,  162,  163
  164,  165,  166,  167,  168,  169,  170,  171,  172,  173,  174,  175,  176,  177,  178,  179
  180,  181,  182,  183,  184,  185,  186,  187,  188,  189,  190,  191,  192,  193,  194,  195
  196,  197,  198,  199,  200,  201,  202,  203,  204,  205,  206,  207,  208,  209,  210,  211
  212,  213,  214,  215,  216,  217,  218,  219,  220,  221,  222,  223,  224,  225,  226,  227
  228,  229,  230,  231,  232,  233,  234,  235,  236,  237,  238,  239,  240,  241,  242,  243
  244,  245,  246,  247,  248,  249,  250,  251,  252,  253,  254,  255,  256,  257,  258,  259
  260,  261,  262,  263,  264,  265,  266,  267,  268,  269,  270,  271,  272,  273,  274,  275
  276,  277,  278,  279,  280,  281,  282,  283,  284,  285,  286,  287,  288,  289,  290,  291
  292,  293,  294,  295,  296,  297,  298,  299,  300,  301,  302,  303,  304,  305,  306,  307
  308,  309,  310,  311,  312,  313,  314,  315,  316,  317,  318,  319,  320,  321,  322,  323
** ... 94 like lines cut
*Elset, elset=frozen-area, instance=gear-2d-1
    1,    2,    3,    4,    5,    6,    7,    8,    9,   10,   11,   12,   13,   14,   15,   16
   17,   18,   19,   20,   21,   22,   23,   24,   25,   26,   27,   28,   29,   30,   31,   32
   33,   34,   35,   36,   37,   38,   39,   40,   41,   42,   43,   44,   45,   46,   47,   48
   49,   50,   51,   52,   53,   54,   55,   56,   57,   58,   59,   60,   61,   62,   63,   64
   65,   66,   67,   68,   69,   70,   71,   72,   73,   74,   75,   76,   77,   78,   79,   80
   81,   82,   83,   84,   85,   86,   87,   88,   89,   90,   91,   92,   93,   94,   95,   96
   97,   98,   99,  100,  101,  102,  103,  104,  105,  106,  107,  108,  109,  110,  111,  112
  113,  114,  115,  116,  117,  118,  119,  120,  121,  122,  123,  124,  125,  126,  127,  128
  129,  130,  131,  132,  133,  134,  135,  136,  137,  138,  139,  140,  141,  142,  143,  144
  145,  146,  147,  148,  149,  150,  151,  152,  153,  154,  155,  156,  157,  158,  159,  160
  161,  162,  163,  164,  165,  166,  167,  168,  169,  170,  171,  172,  173,  174,  175,  176
  177,  178,  179,  180,  181,  182,  183,  184,  185,  186,  187,  188,  189,  190,  191,  192
  193,  194,  195,  196,  197,  198,  199,  200,  201,  202,  203,  204,  205,  206,  207,  208
  209,  210,  211,  212,  213,  214,  215,  216,  217,  218,  219,  220,  221,  222,  223,  224
  225,  226,  227,  228,  229,  230,  231,  232,  233,  234,  235,  236,  237,  238,  239,  240
  241,  242,  243,  244,  245,  246,  247,  248,  249,  250,  251,  252,  253,  254,  255,  256
  257,  258,  259,  260,  261,  262,  263,  264,  265,  266,  267,  268,  269,  270,  271,  272
  273,  274,  275,  276,  277,  278,  279,  280,  281,  282,  283,  284,  285,  286,  287,  288
  289,  290,  291,  292,  293,  294,  295,  296,  297,  298,  299,  300,  301,  302,  303,  304
  305,  306,  307,  308,  309,  310,  311,  312,  313,  314,  315,  316,  317,  318,  319,  320
** ... 65 like lines cut
*Nset, nset=load, instance=gear-2d-1
 984,
*Elset, elset=_Surf-2-shaft_SPOS, internal, instance=shaft-1, generate
 1,  4,  1
*Elset, elset=_Surf-2-shaft_SNEG, internal, instance=shaft-1, generate
  5,  68,   1
*Surface, type=ELEMENT, name=Surf-2-shaft
_Surf-2-shaft_SPOS, SPOS
_Surf-2-shaft_SNEG, SNEG
*Elset, elset=_Surf-2-gear_S2, internal, instance=gear-2d-1
 156, 312
*Elset, elset=_Surf-2-gear_S3, internal, instance=gear-2d-1, generate
 157,  312,    1
*Elset, elset=_Surf-2-gear_S4, internal, instance=gear-2d-1
    1,  157, 5089, 5114, 5139, 5164
*Surface, type=ELEMENT, name=Surf-2-gear
_Surf-2-gear_S2, S2
_Surf-2-gear_S3, S3
_Surf-2-gear_S4, S4
*Rigid Body, ref node=shaft-1.shaft-RefPt_, elset=shaft-1.shaft
*Nset, nset=_T-csys-load, internal
load, 
*Transform, nset=_T-csys-load
0.954042022426643, -0.299672854032661,           0., 0.299672854032661, 0.954042022426643,           0.
*End Assembly
** 
** MATERIALS
** 
*Material, name=steel
*Elastic
200000., 0.3
** 
** INTERACTION PROPERTIES
** 
*Surface Interaction, name=IntProp-1
1.,
*Friction
0.,
*Surface Behavior, pressure-overclosure=HARD
** 
** INTERACTIONS
** 
** Interaction: gear-shaft-contact
*Contact Pair, interaction=IntProp-1, type=SURFACE TO SURFACE, adjust=0.0
Surf-2-gear, Surf-2-shaft
** ----------------------------------------------------------------
** 
** STEP: loadGear
** 
*Step, name=loadGear, nlgeom=YES
*Static
0.1, 1., 1e-05, 1.
** 
** BOUNDARY CONDITIONS
** 
** Name: fixed-shaft Type: Displacement/Rotation
*Boundary
shaft-1.shaft-RP, 1, 1
shaft-1.shaft-RP, 2, 2
shaft-1.shaft-RP, 6, 6
** 
** LOADS
** 
** Name: tooth-load   Type: Concentrated force
*Cload
load, 2, -100.
** 
** OUTPUT REQUESTS
** 
*Restart, write, frequency=0
** 
** FIELD OUTPUT: F-Output-1
** 
*Output, field, variable=PRESELECT
** 
** HISTORY OUTPUT: H-Output-1
** 
*Output, history, variable=PRESELECT
*End Step
