*Heading
** Job name: elastic_plate_3D Model name: elastic_plate_3D
** Generated by: Abaqus/CAE 2023.HF4
*Preprint, echo=NO, model=NO, history=NO, contact=NO
**
** PARTS
**
*Part, name=elastic-hold-plate
*Node
      1, 0.0185979996, 0.0599999987,           0.
      2, 0.0185979996, 0.0181120001,           0.
      3,           0., 0.0181120001,           0.
      4,           0., 0.0599999987,           0.
      5, 0.0185979996, 0.0181120001, 0.00200000009
      6,           0., 0.0181120001, 0.00200000009
      7,           0., 0.0599999987, 0.00200000009
      8, 0.0185979996, 0.0599999987, 0.00200000009
      9, 0.0529999994, 0.0181120001, 0.00200000009
     10, 0.0529999994, 0.0181120001,           0.
     11, 0.0529999994, 0.0599999987,           0.
     12, 0.0529999994, 0.0599999987, 0.00200000009
     13, 0.0185979996,           0., 0.00200000009
     14, 0.0529999994,           0., 0.00200000009
     15, 0.0185979996,           0.,           0.
     16, 0.0529999994,           0.,           0.
     17,           0., 0.00400000019, 0.00200000009
     18, 0.00400000019,           0., 0.00200000009
     19, 0.00400000019,           0., 9.49949008e-11
     20,           0., 0.00400000019, 9.49949008e-11
** ... 3176 like lines cut
*Element, type=C3D8T
  1,   8,  96, 659, 125,   1,  21, 499,  76
  2,  96,  95, 660, 659,  21,  22, 500, 499
  3,  95,  94, 661, 660,  22,  23, 501, 500
  4,  94,  93, 662, 661,  23,  24, 502, 501
  5,  93,  92, 663, 662,  24,  25, 503, 502
  6,  92,  91, 664, 663,  25,  26, 504, 503
  7,  91,  90, 665, 664,  26,  27, 505, 504
  8,  90,  89, 666, 665,  27,  28, 506, 505
  9,  89,  88, 667, 666,  28,  29, 507, 506
 10,  88,  87, 668, 667,  29,  30, 508, 507
 11,  87,  86, 669, 668,  30,  31, 509, 508
 12,  86,  85, 670, 669,  31,  32, 510, 509
 13,  85,  84, 671, 670,  32,  33, 511, 510
 14,  84,  83, 672, 671,  33,  34, 512, 511
 15,  83,  82, 673, 672,  34,  35, 513, 512
 16,  82,  81, 674, 673,  35,  36, 514, 513
 17,  81,  80, 675, 674,  36,  37, 515, 514
 18,  80,  79, 676, 675,  37,  38, 516, 515
 19,  79,  78, 677, 676,  38,  39, 517, 516
 20,  78,  77, 678, 677,  39,  40, 518, 517
** ... 1479 like lines cut
*Nset, nset=Set-1, generate
    1,  3196,     1
*Elset, elset=Set-1, generate
    1,  1499,     1
** Section: Section-1
*Solid Section, elset=Set-1, material=Material-1
,
*End Part
**  
**
** ASSEMBLY
**
*Assembly, name=Assembly
**  
*Instance, name=elastic-hold-plate-1, part=elastic-hold-plate
*End Instance
**  
*Nset, nset=whole_part, instance=elastic-hold-plate-1, generate
    1,  3196,     1
*Elset, elset=whole_part, instance=elastic-hold-plate-1, generate
    1,  1499,     1
*Nset, nset=xsymm_side, instance=elastic-hold-plate-1
   3,   4,   6,   7,  17,  20,  49,  50,  51,  52,  53,  54,  55,  56,  57,  58
  59,  60,  61,  62,  63,  64,  65,  66,  67,  68, 105, 106, 107, 108, 109, 110
 111, 112, 113, 114, 115, 116, 117, 118, 119, 120, 121, 122, 123, 124, 301, 302
 303, 304, 305, 306, 307, 308, 309, 310, 311, 312, 313, 314, 315, 316, 317, 318
 319, 320, 321, 322, 323, 324, 325, 326, 327, 328, 329, 330, 331, 332, 333, 334
 465, 466, 467, 468, 469, 470, 471, 472, 473, 474, 475, 476, 477, 478, 479, 480
 481, 482, 483, 484, 485, 486, 487, 488, 489, 490, 491, 492, 493, 494, 495, 496
 497, 498
*Elset, elset=xsymm_side, instance=elastic-hold-plate-1
 169, 170, 171, 172, 173, 174, 175, 176, 177, 178, 179, 180, 181, 182, 183, 184
 185, 186, 187, 188, 189, 700, 701, 705, 708, 717, 718, 720, 722, 724, 725, 726
 727, 728, 729, 730, 731, 732, 733, 734, 735, 736, 737, 738, 739, 740, 803, 807
 812, 824, 826, 829, 832, 842, 888, 917
*Nset, nset=ysymm_side, instance=elastic-hold-plate-1
  13,  14,  15,  16,  18,  19, 245, 246, 247, 248, 249, 250, 251, 252, 253, 254
 255, 256, 257, 258, 259, 260, 277, 278, 279, 280, 281, 282, 283, 284, 285, 286
 287, 288, 289, 290, 291, 292, 365, 366, 367, 368, 369, 370, 371, 372, 373, 374
 375, 376, 377, 378, 379, 380, 381, 382, 383, 384, 385, 386, 387, 388, 389, 390
 391, 392, 393, 394, 395, 396, 397, 398, 399, 400, 401, 402, 403, 404, 405, 406
 407, 408, 409, 410, 411, 412, 413, 414, 415, 416, 417, 418, 419, 420, 421, 422
 423, 424, 425, 426, 427, 428, 429, 430, 431, 432, 433, 434
*Elset, elset=ysymm_side, instance=elastic-hold-plate-1
 683, 684, 685, 686, 687, 688, 689, 690, 691, 692, 693, 694, 695, 696, 697, 698
 699, 741, 762, 763, 765, 766, 767, 768, 769, 770, 771, 772, 773, 774, 775, 776
 777, 778, 779, 780, 781, 782, 783, 784, 786, 787, 789, 791, 792, 793, 811, 815
 821, 853, 867, 875, 882
*Nset, nset=zsymm_side, instance=elastic-hold-plate-1, generate
    1,  3196,     1
*Elset, elset=zsymm_side, instance=elastic-hold-plate-1, generate
    1,  1499,     1
*Elset, elset=_Surf-1_S5, internal, instance=elastic-hold-plate-1, generate
 210,  546,   21
*Elset, elset=_Surf-1_S6, internal, instance=elastic-hold-plate-1, generate
   1,  169,   21
*Surface, type=ELEMENT, name=Surf-1
_Surf-1_S5, S5
_Surf-1_S6, S6
*End Assembly
** 
** MATERIALS
** 
*Material, name=Material-1
*Density
1.,
*Depvar
     43,
*User Material, constants=24, type=THERMAL
3.,          1.,     8.31446,        300.,       2e-06,    3.07e-10, 6.02214e+23,   8.518e+28
          1.,          1.,          1.,          0.,   8.464e+22,   8.464e+26,     -20200.,     -58600.
     -11500.,          6.,          1.,   2.866e-10,   3.571e-10,       2e+16,       1e+10,      30000.
*User Material, constants=208, type=MECHANICAL
 2.1e+11,         0.3,          0.,          0.,          0.,          0.,          0.,          0.
 8.69678e+08,          0., 8.71527e+08,      0.0002, 8.73375e+08,      0.0004, 8.75224e+08,      0.0006
 8.77073e+08,      0.0008, 8.78921e+08,       0.001, 8.88164e+08,       0.002, 8.97407e+08,       0.003
  9.0665e+08,       0.004, 9.15893e+08,       0.005, 9.25136e+08,       0.006, 9.34379e+08,       0.007
 9.43622e+08,       0.008, 9.52085e+08,       0.009, 9.59845e+08,        0.01, 1.01043e+09,        0.02
 1.03393e+09,        0.03, 1.04621e+09,        0.04, 1.05365e+09,        0.05, 1.05889e+09,        0.06
 1.06305e+09,        0.07, 1.06662e+09,        0.08, 1.06983e+09,        0.09, 1.07278e+09,         0.1
 1.07936e+09,       0.125, 1.08515e+09,        0.15, 1.09036e+09,       0.175, 1.09512e+09,         0.2
 1.09952e+09,       0.225, 1.10362e+09,        0.25, 1.10747e+09,       0.275,  1.1111e+09,         0.3
 1.11455e+09,       0.325, 1.11784e+09,        0.35, 1.12098e+09,       0.375, 1.12399e+09,         0.4
 1.12688e+09,       0.425, 1.12967e+09,        0.45, 1.13237e+09,       0.475, 1.13498e+09,         0.5
  1.1375e+09,       0.525, 1.13995e+09,        0.55, 1.14234e+09,       0.575, 1.14465e+09,         0.6
 1.14691e+09,       0.625, 1.14911e+09,        0.65, 1.15126e+09,       0.675, 1.15336e+09,         0.7
 1.15542e+09,       0.725, 1.15742e+09,        0.75, 1.15939e+09,       0.775, 1.16132e+09,         0.8
 1.16321e+09,       0.825, 1.16506e+09,        0.85, 1.16688e+09,       0.875, 1.16867e+09,         0.9
 1.17043e+09,       0.925, 1.17216e+09,        0.95, 1.17386e+09,       0.975, 1.17553e+09,          1.
 1.17879e+09,        1.05, 1.18196e+09,         1.1, 1.18504e+09,        1.15, 1.18804e+09,         1.2
 1.19096e+09,        1.25, 1.19381e+09,         1.3, 1.19659e+09,        1.35,  1.1993e+09,         1.4
 1.20196e+09,        1.45, 1.20455e+09,         1.5,  1.2071e+09,        1.55, 1.20959e+09,         1.6
 1.21203e+09,        1.65, 1.21443e+09,         1.7, 1.21678e+09,        1.75,  1.2191e+09,         1.8
** ... 6 like lines cut
*User Output Variables
     10,
** 
** PREDEFINED FIELDS
** 
** Name: Cbar_L   Type: Temperature
*Initial Conditions, type=TEMPERATURE
whole_part, 20.
** ----------------------------------------------------------------
** 
** STEP: Step-1
** 
*Step, name=Step-1, nlgeom=YES, inc=10000000
*Coupled Temperature-displacement, creep=none, deltmx=10.
5e+06, 1e+10, 1e+06, 1e+07
** 
** BOUNDARY CONDITIONS
** 
** Name: Xsymm Type: Symmetry/Antisymmetry/Encastre
*Boundary
xsymm_side, XSYMM
** Name: Ysymm Type: Symmetry/Antisymmetry/Encastre
*Boundary
ysymm_side, YSYMM
** Name: Zsymm Type: Symmetry/Antisymmetry/Encastre
*Boundary
zsymm_side, ZSYMM
** 
** LOADS
** 
** Name: Load-1   Type: Pressure
*Dsload
Surf-1, P, -1e+08
** 
** PREDEFINED FIELDS
** 
** Name: Predefined Field-2   Type: Field
*Field, variable=1, user
whole_part
** 
** OUTPUT REQUESTS
** 
*Restart, write, frequency=0
** 
** FIELD OUTPUT: F-Output-1
** 
*Output, field
*Node Output
COORD, NT, RF, U
*Element Output, directions=YES
COORD, LE, S, SDV, UVARM
*Output, history, frequency=0
*End Step
