*Heading
*Preprint, echo=NO, model=NO, history=NO, contact=NO
**
** PARTS
**
*Part, name=solid
*Node
   1096, -0.239999995, 0.00499999989,           0.
   1097, -0.119999968, 0.00499999989,           0.
   1098,  0.119999968, 0.00499999989,           0.
   1099,  0.239999995, 0.00499999989,           0.
   1100, -0.104979299, 0.0203918461, 0.000230207297
   1101,  0.104979299, 0.0203918461, 0.000230207297
   1102,  -0.10499467,  0.109999999, 0.000230917649
   1103,   0.10499467,  0.109999999, 0.000230917649
   1104, -0.224999994, 0.00499999989,           0.
   1105, -0.209999993, 0.00499999989,           0.
   1106, -0.194999993, 0.00499999989,           0.
   1107, -0.179999977, 0.00499999989,           0.
   1108, -0.164999977, 0.00499999989,           0.
   1109, -0.149999976, 0.00499999989,           0.
   1110, -0.134999976, 0.00499999989,           0.
   1111, -0.117956735, 0.00499999989, 0.0220499355
   1112, -0.111896634, 0.00499999989, 0.0433489867
   1113, -0.102026023, 0.00499999989, 0.0631718412
   1114, -0.0886810422, 0.00499999989, 0.0808434561
   1115, -0.0723161325, 0.00499999989, 0.0957620367
** ... 6967 like lines cut
*Element, type=C3D20R
341, 1096, 1104, 1202, 1149, 2191, 2199, 2297, 2244, 1474, 1475, 1476, 1477, 2569, 2570, 2571,
     2572, 6571, 6579, 6677, 6624
342, 1104, 1105, 1203, 1202, 2199, 2200, 2298, 2297, 1478, 1479, 1480, 1475, 2573, 2574, 2575,
     2570, 6579, 6580, 6678, 6677
343, 1105, 1106, 1204, 1203, 2200, 2201, 2299, 2298, 1481, 1482, 1483, 1479, 2576, 2577, 2578,
     2574, 6580, 6581, 6679, 6678
344, 1106, 1107, 1205, 1204, 2201, 2202, 2300, 2299, 1484, 1485, 1486, 1482, 2579, 2580, 2581,
     2577, 6581, 6582, 6680, 6679
345, 1107, 1108, 1206, 1205, 2202, 2203, 2301, 2300, 1487, 1488, 1489, 1485, 2582, 2583, 2584,
     2580, 6582, 6583, 6681, 6680
346, 1108, 1109, 1207, 1206, 2203, 2204, 2302, 2301, 1490, 1491, 1492, 1488, 2585, 2586, 2587,
     2583, 6583, 6584, 6682, 6681
347, 1109, 1110, 1208, 1207, 2204, 2205, 2303, 2302, 1493, 1494, 1495, 1491, 2588, 2589, 2590,
     2586, 6584, 6585, 6683, 6682
348, 1110, 1097, 1111, 1208, 2205, 2192, 2206, 2303, 1496, 1497, 1498, 1494, 2591, 2592, 2593,
     2589, 6585, 6572, 6586, 6683
349, 1149, 1202, 1209, 1148, 2244, 2297, 2304, 2243, 1476, 1499, 1500, 1501, 2571, 2594, 2595,
     2596, 6624, 6677, 6684, 6623
350, 1202, 1203, 1210, 1209, 2297, 2298, 2305, 2304, 1480, 1502, 1503, 1499, 2575, 2597, 2598,
     2594, 6677, 6678, 6685, 6684
** ... 2700 like lines cut
*Elset, elset=solid-Layer-1, generate
 341,  680,    1
*Elset, elset=solid-Layer-2, generate
  681,  1020,     1
*Elset, elset=solid-Layer-3, generate
 1021,  1360,     1
*Elset, elset=solid-Layer-4, generate
 1361,  1700,     1
*Elset, elset=tube
  562,  563,  564,  565,  566,  567,  568,  569,  570,  571,  572,  573,  574,  575,  576,  577
  578,  579,  580,  581,  582,  583,  584,  585,  586,  587,  588,  589,  590,  591,  592,  593
  594,  595,  596,  597,  598,  599,  600,  601,  602,  603,  604,  605,  606,  607,  608,  609
  610,  611,  612,  613,  614,  615,  616,  617,  618,  619,  620,  621,  622,  623,  624,  625
  626,  627,  628,  629,  630,  631,  632,  633,  634,  635,  636,  637,  638,  639,  640,  641
  642,  643,  644,  645,  646,  647,  648,  649,  650,  651,  652,  653,  654,  655,  656,  657
  658,  659,  660,  661,  662,  663,  664,  665,  666,  667,  668,  669,  670,  671,  672,  673
  674,  675,  676,  677,  678,  679,  680,  902,  903,  904,  905,  906,  907,  908,  909,  910
  911,  912,  913,  914,  915,  916,  917,  918,  919,  920,  921,  922,  923,  924,  925,  926
  927,  928,  929,  930,  931,  932,  933,  934,  935,  936,  937,  938,  939,  940,  941,  942
  943,  944,  945,  946,  947,  948,  949,  950,  951,  952,  953,  954,  955,  956,  957,  958
  959,  960,  961,  962,  963,  964,  965,  966,  967,  968,  969,  970,  971,  972,  973,  974
  975,  976,  977,  978,  979,  980,  981,  982,  983,  984,  985,  986,  987,  988,  989,  990
  991,  992,  993,  994,  995,  996,  997,  998,  999, 1000, 1001, 1002, 1003, 1004, 1005, 1006
 1007, 1008, 1009, 1010, 1011, 1012, 1013, 1014, 1015, 1016, 1017, 1018, 1019, 1020, 1242, 1243
 1244, 1245, 1246, 1247, 1248, 1249, 1250, 1251, 1252, 1253, 1254, 1255, 1256, 1257, 1258, 1259
 1260, 1261, 1262, 1263, 1264, 1265, 1266, 1267, 1268, 1269, 1270, 1271, 1272, 1273, 1274, 1275
 1276, 1277, 1278, 1279, 1280, 1281, 1282, 1283, 1284, 1285, 1286, 1287, 1288, 1289, 1290, 1291
 1292, 1293, 1294, 1295, 1296, 1297, 1298, 1299, 1300, 1301, 1302, 1303, 1304, 1305, 1306, 1307
 1308, 1309, 1310, 1311, 1312, 1313, 1314, 1315, 1316, 1317, 1318, 1319, 1320, 1321, 1322, 1323
** ... 10 like lines cut
*Elset, elset=plate
  341,  342,  343,  344,  345,  346,  347,  348,  349,  350,  351,  352,  353,  354,  355,  356
  357,  358,  359,  360,  361,  362,  363,  364,  365,  366,  367,  368,  369,  370,  371,  372
  373,  374,  375,  376,  377,  378,  379,  380,  381,  382,  383,  384,  385,  386,  387,  388
  389,  390,  391,  392,  393,  394,  395,  396,  397,  398,  399,  400,  401,  402,  403,  404
  405,  406,  407,  408,  409,  410,  411,  412,  413,  414,  415,  416,  417,  418,  419,  420
  421,  422,  423,  424,  425,  426,  427,  428,  429,  430,  431,  432,  433,  434,  435,  436
  437,  438,  439,  440,  441,  442,  443,  444,  445,  446,  447,  448,  449,  450,  451,  452
  453,  454,  455,  456,  457,  458,  459,  460,  461,  462,  463,  464,  465,  466,  467,  468
  469,  470,  471,  472,  473,  474,  475,  476,  681,  682,  683,  684,  685,  686,  687,  688
  689,  690,  691,  692,  693,  694,  695,  696,  697,  698,  699,  700,  701,  702,  703,  704
  705,  706,  707,  708,  709,  710,  711,  712,  713,  714,  715,  716,  717,  718,  719,  720
  721,  722,  723,  724,  725,  726,  727,  728,  729,  730,  731,  732,  733,  734,  735,  736
  737,  738,  739,  740,  741,  742,  743,  744,  745,  746,  747,  748,  749,  750,  751,  752
  753,  754,  755,  756,  757,  758,  759,  760,  761,  762,  763,  764,  765,  766,  767,  768
  769,  770,  771,  772,  773,  774,  775,  776,  777,  778,  779,  780,  781,  782,  783,  784
  785,  786,  787,  788,  789,  790,  791,  792,  793,  794,  795,  796,  797,  798,  799,  800
  801,  802,  803,  804,  805,  806,  807,  808,  809,  810,  811,  812,  813,  814,  815,  816
 1021, 1022, 1023, 1024, 1025, 1026, 1027, 1028, 1029, 1030, 1031, 1032, 1033, 1034, 1035, 1036
 1037, 1038, 1039, 1040, 1041, 1042, 1043, 1044, 1045, 1046, 1047, 1048, 1049, 1050, 1051, 1052
 1053, 1054, 1055, 1056, 1057, 1058, 1059, 1060, 1061, 1062, 1063, 1064, 1065, 1066, 1067, 1068
** ... 14 like lines cut
*Elset, elset=fillet
  477,  478,  479,  480,  481,  482,  483,  484,  485,  486,  487,  488,  489,  490,  491,  492
  493,  494,  495,  496,  497,  498,  499,  500,  501,  502,  503,  504,  505,  506,  507,  508
  509,  510,  511,  512,  513,  514,  515,  516,  517,  518,  519,  520,  521,  522,  523,  524
  525,  526,  527,  528,  529,  530,  531,  532,  533,  534,  535,  536,  537,  538,  539,  540
  541,  542,  543,  544,  545,  546,  547,  548,  549,  550,  551,  552,  553,  554,  555,  556
  557,  558,  559,  560,  561,  817,  818,  819,  820,  821,  822,  823,  824,  825,  826,  827
  828,  829,  830,  831,  832,  833,  834,  835,  836,  837,  838,  839,  840,  841,  842,  843
  844,  845,  846,  847,  848,  849,  850,  851,  852,  853,  854,  855,  856,  857,  858,  859
  860,  861,  862,  863,  864,  865,  866,  867,  868,  869,  870,  871,  872,  873,  874,  875
  876,  877,  878,  879,  880,  881,  882,  883,  884,  885,  886,  887,  888,  889,  890,  891
  892,  893,  894,  895,  896,  897,  898,  899,  900,  901, 1157, 1158, 1159, 1160, 1161, 1162
 1163, 1164, 1165, 1166, 1167, 1168, 1169, 1170, 1171, 1172, 1173, 1174, 1175, 1176, 1177, 1178
 1179, 1180, 1181, 1182, 1183, 1184, 1185, 1186, 1187, 1188, 1189, 1190, 1191, 1192, 1193, 1194
 1195, 1196, 1197, 1198, 1199, 1200, 1201, 1202, 1203, 1204, 1205, 1206, 1207, 1208, 1209, 1210
 1211, 1212, 1213, 1214, 1215, 1216, 1217, 1218, 1219, 1220, 1221, 1222, 1223, 1224, 1225, 1226
 1227, 1228, 1229, 1230, 1231, 1232, 1233, 1234, 1235, 1236, 1237, 1238, 1239, 1240, 1241, 1497
 1498, 1499, 1500, 1501, 1502, 1503, 1504, 1505, 1506, 1507, 1508, 1509, 1510, 1511, 1512, 1513
 1514, 1515, 1516, 1517, 1518, 1519, 1520, 1521, 1522, 1523, 1524, 1525, 1526, 1527, 1528, 1529
 1530, 1531, 1532, 1533, 1534, 1535, 1536, 1537, 1538, 1539, 1540, 1541, 1542, 1543, 1544, 1545
 1546, 1547, 1548, 1549, 1550, 1551, 1552, 1553, 1554, 1555, 1556, 1557, 1558, 1559, 1560, 1561
 1562, 1563, 1564, 1565, 1566, 1567, 1568, 1569, 1570, 1571, 1572, 1573, 1574, 1575, 1576, 1577
 1578, 1579, 1580, 1581
*Elset, elset=tube-layer-1, generate
 562,  680,    1
*Elset, elset=tube-layer-2, generate
  902,  1020,     1
*Elset, elset=tube-layer-3, generate
 1242,  1360,     1
*Elset, elset=tube-layer-4, generate
 1582,  1700,     1
*Elset, elset=plate-layer-1, generate
 341,  476,    1
*Elset, elset=plate-layer-2, generate
 681,  816,    1
*Elset, elset=plate-layer-3, generate
 1021,  1156,     1
*Elset, elset=plate-layer-4, generate
 1361,  1496,     1
*Elset, elset=fillet-layer-1, generate
 477,  561,    1
*Elset, elset=fillet-layer-2, generate
 817,  901,    1
*Elset, elset=fillet-layer-3, generate
 1157,  1241,     1
*Elset, elset=fillet-layer-4, generate
 1497,  1581,     1
*Elset, elset=_fillet-outer_S1, internal, generate
 477,  561,    1
*Surface, type=ELEMENT, name=fillet-outer
_fillet-outer_S1, S1
*Elset, elset=_tube-outer_S1, internal, generate
 562,  680,    1
*Surface, type=ELEMENT, name=tube-outer
_tube-outer_S1, S1
*Elset, elset=_plate-outer_S1, internal, generate
 341,  476,    1
*Surface, type=ELEMENT, name=plate-outer
_plate-outer_S1, S1
*Distribution, name=Ori-1-DiscOrient, location=ELEMENT, Table=Ori-1-DiscOrient_Table
** Description: Distribution generated from Discrete Orientation
,           1.,           0.,           0.,           0.,           1.,           0.
477, -0.981036841869354, -0.171180710196495, 0.0909060686826706, 0.0922679975628853,  -8.67597549358834e-08, 0.99573427438736
478, -0.874341666698456, -0.478500247001648, 0.0810193121433258, 0.0922679603099823,  -4.59032136745918e-08, 0.99573415517807
479, -0.689189851284027, -0.721760988235474, 0.0638625174760818, 0.0922681763768196,  -2.85811495359667e-07, 0.99573415517807
480, -0.440516293048859, -0.896816194057465, 0.0408195927739143, 0.0922684073448181,  -2.98255741881803e-07, 0.995734333992004
481, -0.142625197768211, -0.989688575267792, 0.0132160196080804, 0.0922685638070107,  -1.80834078378211e-07, 0.99573427438736
482, -0.94820511341095, -0.171254843473434, 0.267542123794556, 0.271607339382172, -0.000319816084811464, 0.962408125400543
483, -0.844980299472809, -0.478712350130081, 0.238416776061058, 0.27183723449707, -0.000539724482223392, 0.962343096733093
484, -0.665899574756622, -0.72199410200119, 0.1878881752491, 0.271910518407822, -0.000354730495018885, 0.962322354316711
485, -0.425528675317764, -0.896944403648376, 0.120066121220589, 0.271760851144791, -0.000105514860479161, 0.962364673614502
486, -0.137728825211525, -0.989707291126251, 0.0388616472482681, 0.271591007709503,  -5.02054126627627e-06, 0.962412714958191
487, -0.882899880409241, -0.171254739165306, 0.437217891216278, 0.4438236951828, -0.000320064951665699, 0.896113991737366
488, -0.78678423166275, -0.478712528944016, 0.389620691537857, 0.444037556648254, -0.000540247187018394, 0.896007657051086
489, -0.620037734508514, -0.721993982791901, 0.307046622037888, 0.444106221199036, -0.000355715659679845, 0.895973980426788
490, -0.396221399307251, -0.896944642066956, 0.196211203932762, 0.44396761059761, -0.000106841383967549, 0.896042764186859
491, -0.128243178129196, -0.989707291126251, 0.0635065659880638, 0.443809360265732,  -6.00269686401589e-06, 0.896121203899384
492, -0.787527978420258, -0.171254709362984, 0.592006087303162, 0.600927472114563, -0.00031995790777728, 0.799303233623505
493, -0.701794922351837, -0.478712826967239, 0.527558088302612, 0.601118206977844, -0.000540023203939199, 0.799159705638886
494, -0.553059756755829, -0.721994936466217, 0.415749728679657, 0.601179182529449, -0.000355462834704667, 0.799113929271698
495, -0.353421568870544, -0.896944344043732, 0.26567617058754, 0.601055264472961, -0.000106547384348232, 0.799207270145416
496, -0.114390283823013, -0.989707231521606, 0.085989810526371, 0.600914299488068,  -6.02108411840163e-06, 0.799313306808472
** ... 320 like lines cut
*Distribution, name=Ori-5-DiscOrient, location=ELEMENT, Table=Ori-5-DiscOrient_Table
** Description: Distribution generated from Discrete Orientation
,           1.,           0.,           0.,           0.,           1.,           0.
341,          -1.,           0.,  4.3555106480218e-16,  4.3555106480218e-16,          -0.,           1.
342,          -1.,           0.,  1.46441077796183e-16,  1.46441077796183e-16,          -0.,           1.
343,          -1.,           0.,  1.50129747462798e-16,  1.50129747462798e-16,          -0.,           1.
344, -0.999999940395355,           0.,  1.54740399257609e-16,  1.54740399257609e-16,          -0., 0.999999940395355
345,          -1.,           0.,  1.60609027327991e-16,  1.60609027327991e-16,          -0.,           1.
346,          -1.,           0.,  1.68237776627878e-16,  1.68237776627878e-16,          -0.,           1.
347,          -1.,           0.,  1.78409676177446e-16,  1.78409676177446e-16,          -0.,           1.
348,          -1.,           0.,  1.14973856745245e-16,  1.14973856745245e-16,          -0.,           1.
349,          -1.,           0.,  1.46441077796183e-16,  1.46441077796183e-16,          -0.,           1.
350,          -1.,           0.,  1.50129747462798e-16,  1.50129747462798e-16,          -0.,           1.
351, -0.999999940395355,           0.,  1.54740399257609e-16,  1.54740399257609e-16,          -0., 0.999999940395355
352,          -1.,           0.,  1.60609027327991e-16,  1.60609027327991e-16,          -0.,           1.
353,          -1.,           0.,  1.60609027327991e-16,  1.60609027327991e-16,          -0.,           1.
354,          -1.,           0.,  1.68237776627878e-16,  1.68237776627878e-16,          -0.,           1.
355,          -1.,           0.,  1.78409676177446e-16,  1.78409676177446e-16,          -0.,           1.
356,          -1.,           0.,  1.14973856745245e-16,  1.14973856745245e-16,          -0.,           1.
357,          -1.,           0.,  1.50129747462798e-16,  1.50129747462798e-16,          -0.,           1.
358, -0.999999940395355,           0.,  1.54740399257609e-16,  1.54740399257609e-16,          -0., 0.999999940395355
359, -0.999999940395355,           0.,  1.54740399257609e-16,  1.54740399257609e-16,          -0., 0.999999940395355
360,          -1.,           0.,  1.60609027327991e-16,  1.60609027327991e-16,          -0.,           1.
** ... 524 like lines cut
*Distribution, name=Ori-9-DiscOrient, location=ELEMENT, Table=Ori-9-DiscOrient_Table
** Description: Distribution generated from Discrete Orientation
,           1.,           0.,           0.,           0.,           1.,           0.
562, 0.00123657856602222, -0.999999344348907,  -5.73116303712595e-05, 0.0922682359814644,  5.70298034290317e-05, 0.99573427438736
563,           0.,          -1.,           0., 0.0922685414552689,           0., 0.99573415517807
564,           0.,          -1.,           0., 0.0922685414552689,           0., 0.99573415517807
565,           0.,          -1.,           0., 0.0922685414552689,           0., 0.99573415517807
566,           0.,          -1.,           0., 0.0922685414552689,           0., 0.99573415517807
567,           0.,          -1.,           0., 0.0922685414552689,           0., 0.99573415517807
568,           0.,          -1.,           0., 0.0922685414552689,           0., 0.99573415517807
569, 0.00127283914480358, -0.999999344348907,  -6.82075333315879e-05, 0.27154865860939, 0.000279993313597515, 0.962424755096436
570,           0.,          -1.,           0., 0.271547108888626,           0., 0.962425172328949
571,           0.,          -1.,           0., 0.271547108888626,           0., 0.962425172328949
572,           0.,          -1.,           0., 0.271547108888626,           0., 0.962425172328949
573,           0.,          -1.,           0., 0.271547108888626,           0., 0.962425172328949
574,           0.,          -1.,           0., 0.271547108888626,           0., 0.962425172328949
575,           0.,          -1.,           0., 0.271547108888626,           0., 0.962425172328949
576, 0.00133450026623905, -0.999999046325684, -0.000107215237221681, 0.443769186735153, 0.000496130611281842, 0.896140992641449
577,           0.,          -1.,           0., 0.443768620491028,           0., 0.896141409873962
578,           0.,          -1.,           0., 0.443768620491028,           0., 0.896141409873962
579,           0.,          -1.,           0., 0.443768620491028,           0., 0.896141409873962
580,           0.,          -1.,           0., 0.443768620491028,           0., 0.896141409873962
581,           0.,          -1.,           0., 0.443768620491028,           0., 0.896141409873962
** ... 456 like lines cut
*Orientation, name=Ori-5, system=RECTANGULAR
Ori-5-DiscOrient
3, 0.
** Region: (plate-1: Generated From Layup)
*Elset, elset=plate-1, generate
 341,  476,    1
** Section: plate-1
*Solid Section, elset=plate-1, composite, orientation=Ori-5, stack direction=3, layup=plate
0.0025, 3, T300, 0., Ply-1
*Orientation, name=Ori-1, system=RECTANGULAR
Ori-1-DiscOrient
3, 0.
** Region: (fillet-1: Generated From Layup)
*Elset, elset=fillet-1, generate
 477,  561,    1
** Section: fillet-1
*Solid Section, elset=fillet-1, composite, orientation=Ori-1, stack direction=3, layup=fillet
0.0025, 3, T300, 0., Ply-1
*Orientation, name=Ori-9, system=RECTANGULAR
Ori-9-DiscOrient
3, 0.
** Region: (tube-1: Generated From Layup)
*Elset, elset=tube-1, generate
 562,  680,    1
** Section: tube-1
*Solid Section, elset=tube-1, composite, orientation=Ori-9, stack direction=3, layup=tube
0.0025, 3, T300, 0., Ply-1
*Orientation, name=Ori-7, system=RECTANGULAR
Ori-5-DiscOrient
3, 0.
** Region: (plate-3: Generated From Layup)
*Elset, elset=plate-3, generate
 681,  816,    1
** Section: plate-3
*Solid Section, elset=plate-3, composite, orientation=Ori-7, stack direction=3, layup=plate
0.0025, 3, T300, 45., Ply-2
*Orientation, name=Ori-3, system=RECTANGULAR
Ori-1-DiscOrient
3, 0.
** Region: (fillet-3: Generated From Layup)
*Elset, elset=fillet-3, generate
 817,  901,    1
** Section: fillet-3
*Solid Section, elset=fillet-3, composite, orientation=Ori-3, stack direction=3, layup=fillet
0.0025, 3, T300, 45., Ply-2
*Orientation, name=Ori-11, system=RECTANGULAR
Ori-9-DiscOrient
3, 0.
** Region: (tube-3: Generated From Layup)
*Elset, elset=tube-3, generate
  902,  1020,     1
** Section: tube-3
*Solid Section, elset=tube-3, composite, orientation=Ori-11, stack direction=3, layup=tube
0.0025, 3, T300, 45., Ply-2
*Orientation, name=Ori-6, system=RECTANGULAR
Ori-5-DiscOrient
3, 0.
** Region: (plate-2: Generated From Layup)
*Elset, elset=plate-2, generate
 1021,  1156,     1
** Section: plate-2
*Solid Section, elset=plate-2, composite, orientation=Ori-6, stack direction=3, layup=plate
0.0025, 3, T300, -45., Ply-3
*Orientation, name=Ori-2, system=RECTANGULAR
Ori-1-DiscOrient
3, 0.
** Region: (fillet-2: Generated From Layup)
*Elset, elset=fillet-2, generate
 1157,  1241,     1
** Section: fillet-2
*Solid Section, elset=fillet-2, composite, orientation=Ori-2, stack direction=3, layup=fillet
0.0025, 3, T300, -45., Ply-3
*Orientation, name=Ori-10, system=RECTANGULAR
Ori-9-DiscOrient
3, 0.
** Region: (tube-2: Generated From Layup)
*Elset, elset=tube-2, generate
 1242,  1360,     1
** Section: tube-2
*Solid Section, elset=tube-2, composite, orientation=Ori-10, stack direction=3, layup=tube
0.0025, 3, T300, -45., Ply-3
*Orientation, name=Ori-8, system=RECTANGULAR
Ori-5-DiscOrient
3, 0.
** Region: (plate-4: Generated From Layup)
*Elset, elset=plate-4, generate
 1361,  1496,     1
** Section: plate-4
*Solid Section, elset=plate-4, composite, orientation=Ori-8, stack direction=3, layup=plate
0.0025, 3, T300, 90., Ply-4
*Orientation, name=Ori-4, system=RECTANGULAR
Ori-1-DiscOrient
3, 0.
** Region: (fillet-4: Generated From Layup)
*Elset, elset=fillet-4, generate
 1497,  1581,     1
** Section: fillet-4
*Solid Section, elset=fillet-4, composite, orientation=Ori-4, stack direction=3, layup=fillet
0.0025, 3, T300, 90., Ply-4
*Orientation, name=Ori-12, system=RECTANGULAR
Ori-9-DiscOrient
3, 0.
** Region: (tube-4: Generated From Layup)
*Elset, elset=tube-4, generate
 1582,  1700,     1
** Section: tube-4
*Solid Section, elset=tube-4, composite, orientation=Ori-12, stack direction=3, layup=tube
0.0025, 3, T300, 90., Ply-4
*End Part
**  
**
** ASSEMBLY
**
*Assembly, name=Assembly
**  
*Instance, name=solid-1, part=solid
          0.,           0.,           0.
          0.,           0.,           0.,           1.,           0.,           0.,          90.
*End Instance
**  
*Nset, nset=cut, instance=solid-1
 1096, 1099, 1102, 1103, 1134, 1135, 1136, 1137, 1138, 1139, 1140, 1141, 1142, 1143, 1144, 1145
 1146, 1147, 1148, 1149, 1180, 1181, 1182, 1183, 1184, 1185, 1186, 1187, 1188, 1189, 1190, 1191
 1192, 1193, 1194, 1195, 1477, 1501, 1518, 1535, 1552, 1569, 1586, 1603, 1620, 1637, 1654, 1671
 1688, 1705, 1722, 1739, 1756, 1965, 1979, 1993, 2007, 2021, 2035, 2049, 2063, 2077, 2091, 2105
 2119, 2133, 2147, 2161, 2175, 2189, 2191, 2194, 2197, 2198, 2229, 2230, 2231, 2232, 2233, 2234
 2235, 2236, 2237, 2238, 2239, 2240, 2241, 2242, 2243, 2244, 2275, 2276, 2277, 2278, 2279, 2280
 2281, 2282, 2283, 2284, 2285, 2286, 2287, 2288, 2289, 2290, 2572, 2596, 2613, 2630, 2647, 2664
 2681, 2698, 2715, 2732, 2749, 2766, 2783, 2800, 2817, 2834, 2851, 3060, 3074, 3088, 3102, 3116
 3130, 3144, 3158, 3172, 3186, 3200, 3214, 3228, 3242, 3256, 3270, 3284, 3286, 3289, 3292, 3293
 3324, 3325, 3326, 3327, 3328, 3329, 3330, 3331, 3332, 3333, 3334, 3335, 3336, 3337, 3338, 3339
 3370, 3371, 3372, 3373, 3374, 3375, 3376, 3377, 3378, 3379, 3380, 3381, 3382, 3383, 3384, 3385
 3667, 3691, 3708, 3725, 3742, 3759, 3776, 3793, 3810, 3827, 3844, 3861, 3878, 3895, 3912, 3929
 3946, 4155, 4169, 4183, 4197, 4211, 4225, 4239, 4253, 4267, 4281, 4295, 4309, 4323, 4337, 4351
 4365, 4379, 4381, 4384, 4387, 4388, 4419, 4420, 4421, 4422, 4423, 4424, 4425, 4426, 4427, 4428
 4429, 4430, 4431, 4432, 4433, 4434, 4465, 4466, 4467, 4468, 4469, 4470, 4471, 4472, 4473, 4474
 4475, 4476, 4477, 4478, 4479, 4480, 4762, 4786, 4803, 4820, 4837, 4854, 4871, 4888, 4905, 4922
 4939, 4956, 4973, 4990, 5007, 5024, 5041, 5250, 5264, 5278, 5292, 5306, 5320, 5334, 5348, 5362
 5376, 5390, 5404, 5418, 5432, 5446, 5460, 5474, 5476, 5479, 5482, 5483, 5514, 5515, 5516, 5517
 5518, 5519, 5520, 5521, 5522, 5523, 5524, 5525, 5526, 5527, 5528, 5529, 5560, 5561, 5562, 5563
 5564, 5565, 5566, 5567, 5568, 5569, 5570, 5571, 5572, 5573, 5574, 5575, 5857, 5881, 5898, 5915
** ... 11 like lines cut
*Nset, nset=ysymm, instance=solid-1
 1097, 1098, 1100, 1101, 1104, 1105, 1106, 1107, 1108, 1109, 1110, 1127, 1128, 1129, 1130, 1131
 1132, 1133, 1150, 1151, 1152, 1153, 1170, 1171, 1172, 1173, 1174, 1175, 1176, 1177, 1178, 1179
 1196, 1197, 1198, 1199, 1200, 1201, 1474, 1478, 1481, 1484, 1487, 1490, 1493, 1496, 1755, 1758
 1760, 1762, 1764, 1766, 1768, 1770, 1771, 1774, 1777, 1780, 1783, 1937, 1939, 1941, 1943, 1945
 1946, 1949, 1952, 1955, 1958, 1961, 1964, 2178, 2180, 2182, 2184, 2186, 2188, 2190, 2192, 2193
 2195, 2196, 2199, 2200, 2201, 2202, 2203, 2204, 2205, 2222, 2223, 2224, 2225, 2226, 2227, 2228
 2245, 2246, 2247, 2248, 2265, 2266, 2267, 2268, 2269, 2270, 2271, 2272, 2273, 2274, 2291, 2292
 2293, 2294, 2295, 2296, 2569, 2573, 2576, 2579, 2582, 2585, 2588, 2591, 2850, 2853, 2855, 2857
 2859, 2861, 2863, 2865, 2866, 2869, 2872, 2875, 2878, 3032, 3034, 3036, 3038, 3040, 3041, 3044
 3047, 3050, 3053, 3056, 3059, 3273, 3275, 3277, 3279, 3281, 3283, 3285, 3287, 3288, 3290, 3291
 3294, 3295, 3296, 3297, 3298, 3299, 3300, 3317, 3318, 3319, 3320, 3321, 3322, 3323, 3340, 3341
 3342, 3343, 3360, 3361, 3362, 3363, 3364, 3365, 3366, 3367, 3368, 3369, 3386, 3387, 3388, 3389
 3390, 3391, 3664, 3668, 3671, 3674, 3677, 3680, 3683, 3686, 3945, 3948, 3950, 3952, 3954, 3956
 3958, 3960, 3961, 3964, 3967, 3970, 3973, 4127, 4129, 4131, 4133, 4135, 4136, 4139, 4142, 4145
 4148, 4151, 4154, 4368, 4370, 4372, 4374, 4376, 4378, 4380, 4382, 4383, 4385, 4386, 4389, 4390
 4391, 4392, 4393, 4394, 4395, 4412, 4413, 4414, 4415, 4416, 4417, 4418, 4435, 4436, 4437, 4438
 4455, 4456, 4457, 4458, 4459, 4460, 4461, 4462, 4463, 4464, 4481, 4482, 4483, 4484, 4485, 4486
 4759, 4763, 4766, 4769, 4772, 4775, 4778, 4781, 5040, 5043, 5045, 5047, 5049, 5051, 5053, 5055
 5056, 5059, 5062, 5065, 5068, 5222, 5224, 5226, 5228, 5230, 5231, 5234, 5237, 5240, 5243, 5246
 5249, 5463, 5465, 5467, 5469, 5471, 5473, 5475, 5477, 5478, 5480, 5481, 5484, 5485, 5486, 5487
** ... 14 like lines cut
*End Assembly
*Distribution Table, name=Ori-1-DiscOrient_Table
coord3D, coord3D
*Distribution Table, name=Ori-5-DiscOrient_Table
coord3D, coord3D
*Distribution Table, name=Ori-9-DiscOrient_Table
coord3D, coord3D
** 
** MATERIALS
** 
*Material, name=T300
*Elastic, type=ENGINEERING CONSTANTS
 1.56512e+11, 1.2962e+10, 1.2962e+10,       0.23,         0.,         0.,  6.964e+09,  6.964e+09
  6.964e+09,
*Fail Stress
 1.5169e+09, 2.7076e+09,  1.024e+08,   2.53e+08,  1.069e+08,         0.,         0.
** ----------------------------------------------------------------
** 
** STEP: Step-1
** 
*Step, name=Step-1, nlgeom=NO
*Static
1., 1., 1e-05, 1.
** 
** OUTPUT REQUESTS
** 
*Restart, write, frequency=0
** 
** FIELD OUTPUT: F-Output-1
** 
*Output, field
*Node Output
U, 
** 
** FIELD OUTPUT: F-Output-4
** 
*Element Output, elset=solid-1.fillet-1, directions=YES
1, 2, 3
CFAILURE, S
** 
** FIELD OUTPUT: F-Output-4
** 
*Element Output, elset=solid-1.fillet-2, directions=YES
1, 2, 3
CFAILURE, S
** 
** FIELD OUTPUT: F-Output-4
** 
*Element Output, elset=solid-1.fillet-3, directions=YES
1, 2, 3
CFAILURE, S
** 
** FIELD OUTPUT: F-Output-4
** 
*Element Output, elset=solid-1.fillet-4, directions=YES
1, 2, 3
CFAILURE, S
** 
** FIELD OUTPUT: F-Output-2
** 
*Element Output, elset=solid-1.plate-1, directions=YES
1, 2, 3
CFAILURE, S
** 
** FIELD OUTPUT: F-Output-2
** 
*Element Output, elset=solid-1.plate-2, directions=YES
1, 2, 3
CFAILURE, S
** 
** FIELD OUTPUT: F-Output-2
** 
*Element Output, elset=solid-1.plate-3, directions=YES
1, 2, 3
CFAILURE, S
** 
** FIELD OUTPUT: F-Output-2
** 
*Element Output, elset=solid-1.plate-4, directions=YES
1, 2, 3
CFAILURE, S
** 
** FIELD OUTPUT: F-Output-3
** 
*Element Output, elset=solid-1.tube-1, directions=YES
1, 2, 3
CFAILURE, S
** 
** FIELD OUTPUT: F-Output-3
** 
*Element Output, elset=solid-1.tube-2, directions=YES
1, 2, 3
CFAILURE, S
** 
** FIELD OUTPUT: F-Output-3
** 
*Element Output, elset=solid-1.tube-3, directions=YES
1, 2, 3
CFAILURE, S
** 
** FIELD OUTPUT: F-Output-3
** 
*Element Output, elset=solid-1.tube-4, directions=YES
1, 2, 3
CFAILURE, S
** 
** HISTORY OUTPUT: H-Output-1
** 
*Output, history, variable=PRESELECT
*End Step
