*Heading
*Preprint, echo=NO, model=NO, history=NO, contact=NO
**
** PARTS
**
*Part, name=joint
*Node
      1,  0.100000001,           0.,          0.5
      2, -0.100000001,           0.,          0.5
      3, -0.100000001,           0.,           0.
      4,  0.100000001,           0.,           0.
      5,          0.5,         -0.5,           0.
      6,          0.5,           0.,           0.
      7,         -0.5,           0.,           0.
      8,         -0.5,         -0.5,           0.
      9, 0.0991444886, -0.0130526191,          0.5
     10, 0.0965925828, -0.0258819051,          0.5
     11, 0.0923879519, -0.0382683426,          0.5
     12, 0.0866025388, -0.0500000007,          0.5
     13, 0.0793353319, -0.0608761422,          0.5
     14, 0.0707106814, -0.0707106814,          0.5
     15, 0.0608761422, -0.0793353319,          0.5
     16, 0.0500000007, -0.0866025388,          0.5
     17, 0.0382683426, -0.0923879519,          0.5
     18, 0.0258819051, -0.0965925828,          0.5
     19, 0.0130526191, -0.0991444886,          0.5
     20,           0., -0.100000001,          0.5
** ... 559 like lines cut
*Element, type=S4R
  1,  68, 120,   9,   1
  2, 120, 121,  10,   9
  3, 121, 122,  11,  10
  4, 122, 123,  12,  11
  5, 123, 124,  13,  12
  6, 124, 125,  14,  13
  7, 125, 126,  15,  14
  8, 126, 127,  16,  15
  9, 127, 128,  17,  16
 10, 128, 129,  18,  17
 11, 129, 130,  19,  18
 12, 130, 131,  20,  19
 13, 131, 132,  21,  20
 14, 132, 133,  22,  21
 15, 133, 134,  23,  22
 16, 134, 135,  24,  23
 17, 135, 136,  25,  24
 18, 136, 137,  26,  25
 19, 137, 138,  27,  26
 20, 138, 139,  28,  27
** ... 510 like lines cut
*Nset, nset=tube
   1,   2,   3,   4,   9,  10,  11,  12,  13,  14,  15,  16,  17,  18,  19,  20
  21,  22,  23,  24,  25,  26,  27,  28,  29,  30,  31,  32,  33,  34,  35,  36
  37,  38,  39,  40,  41,  42,  43,  44,  45,  46,  47,  48,  49,  50,  51,  52
  53,  54,  55,  56,  57,  58,  59,  60,  61,  62,  63,  64,  65,  66,  67,  68
 120, 121, 122, 123, 124, 125, 126, 127, 128, 129, 130, 131, 132, 133, 134, 135
 136, 137, 138, 139, 140, 141, 142, 143, 144, 145, 146, 147, 148, 149, 150, 151
 152, 153, 154, 155, 156, 157, 158, 159, 160, 161, 162, 163, 164, 165, 166, 167
 168, 169, 170, 171, 172, 173, 174, 175, 176, 177, 178, 179, 180, 181, 182, 183
 184, 185, 186, 187, 188, 189, 190, 191, 192, 193, 194, 195, 196, 197, 198, 199
 200, 201, 202, 203, 204, 205, 206, 207, 208, 209, 210, 211, 212, 213, 214, 215
 216, 217, 218, 219, 220, 221, 222, 223, 224, 225, 226, 227, 228, 229, 230, 231
 232, 233, 234, 235, 236, 237, 238, 239, 240, 241, 242, 243, 244, 245, 246, 247
 248, 249, 250, 251, 252, 253, 254, 255, 256, 257, 258, 259, 260, 261, 262, 263
 264, 265, 266, 267, 268, 269, 270, 271, 272, 273, 274, 275, 276, 277, 278, 279
 280,
*Elset, elset=tube, generate
   1,  192,    1
*Nset, nset=plate
   3,   4,   5,   6,   7,   8,  39,  40,  41,  42,  43,  44,  45,  46,  47,  48
  49,  50,  51,  52,  53,  54,  55,  56,  57,  58,  59,  60,  61,  69,  70,  71
  72,  73,  74,  75,  76,  77,  78,  79,  80,  81,  82,  83,  84,  85,  86,  87
  88,  89,  90,  91,  92,  93,  94,  95,  96,  97,  98,  99, 100, 101, 102, 103
 104, 105, 106, 107, 108, 109, 110, 111, 112, 113, 114, 115, 116, 117, 118, 119
 281, 282, 283, 284, 285, 286, 287, 288, 289, 290, 291, 292, 293, 294, 295, 296
 297, 298, 299, 300, 301, 302, 303, 304, 305, 306, 307, 308, 309, 310, 311, 312
 313, 314, 315, 316, 317, 318, 319, 320, 321, 322, 323, 324, 325, 326, 327, 328
 329, 330, 331, 332, 333, 334, 335, 336, 337, 338, 339, 340, 341, 342, 343, 344
 345, 346, 347, 348, 349, 350, 351, 352, 353, 354, 355, 356, 357, 358, 359, 360
 361, 362, 363, 364, 365, 366, 367, 368, 369, 370, 371, 372, 373, 374, 375, 376
 377, 378, 379, 380, 381, 382, 383, 384, 385, 386, 387, 388, 389, 390, 391, 392
 393, 394, 395, 396, 397, 398, 399, 400, 401, 402, 403, 404, 405, 406, 407, 408
 409, 410, 411, 412, 413, 414, 415, 416, 417, 418, 419, 420, 421, 422, 423, 424
 425, 426, 427, 428, 429, 430, 431, 432, 433, 434, 435, 436, 437, 438, 439, 440
 441, 442, 443, 444, 445, 446, 447, 448, 449, 450, 451, 452, 453, 454, 455, 456
 457, 458, 459, 460, 461, 462, 463, 464, 465, 466, 467, 468, 469, 470, 471, 472
 473, 474, 475, 476, 477, 478, 479, 480, 481, 482, 483, 484, 485, 486, 487, 488
 489, 490, 491, 492, 493, 494, 495, 496, 497, 498, 499, 500, 501, 502, 503, 504
 505, 506, 507, 508, 509, 510, 511, 512, 513, 514, 515, 516, 517, 518, 519, 520
** ... 4 like lines cut
*Elset, elset=plate, generate
 193,  530,    1
*Nset, nset=Set-15
  1,  2,  9, 10, 11, 12, 13, 14, 15, 16, 17, 18, 19, 20, 21, 22
 23, 24, 25, 26, 27, 28, 29, 30, 31
*Elset, elset=Set-15, generate
  1,  24,   1
*Nset, nset=Set-16
   5,   8,  83,  84,  85,  86,  87,  88,  89,  90,  91,  92,  93,  94,  95,  96
  97,  98,  99, 100, 101, 102, 103, 104, 105
*Elset, elset=Set-16
 302, 308, 314, 320, 326, 332, 338, 344, 350, 356, 362, 368, 374, 375, 390, 391
 392, 393, 394, 395, 396, 397, 398, 530
*Elset, elset=_tube_SNEG, internal, generate
   1,  192,    1
*Surface, type=ELEMENT, name=tube
_tube_SNEG, SNEG
*Elset, elset=_plate_SNEG, internal, generate
 193,  530,    1
*Surface, type=ELEMENT, name=plate
_plate_SNEG, SNEG
*Distribution, name=Ori-1-DiscOrient, location=ELEMENT, Table=Ori-1-DiscOrient_Table
** Description: Distribution generated from Discrete Orientation
,           1.,           0.,           0.,           0.,           1.,           0.
193,           1.,           0.,           0.,           0.,          -1.,           0.
194,           1.,           0.,           0.,           0.,          -1.,           0.
195,           1.,           0.,           0.,           0.,          -1.,           0.
196,           1.,           0.,           0.,           0.,          -1.,           0.
197,           1.,           0.,           0.,           0.,          -1.,           0.
198,           1.,           0.,           0.,           0.,          -1.,           0.
199,           1.,           0.,           0.,           0.,          -1.,           0.
200,           1.,           0.,           0.,           0.,          -1.,           0.
201,           1.,           0.,           0.,           0.,          -1.,           0.
202,           1.,           0.,           0.,           0.,          -1.,           0.
203,           1.,           0.,           0.,           0.,          -1.,           0.
204,           1.,           0.,           0.,           0.,          -1.,           0.
205,           1.,           0.,           0.,           0.,          -1.,           0.
206,           1.,           0.,           0.,           0.,          -1.,           0.
207,           1.,           0.,           0.,           0.,          -1.,           0.
208,           1.,           0.,           0.,           0.,          -1.,           0.
209,           1.,           0.,           0.,           0.,          -1.,           0.
210,           1.,           0.,           0.,           0.,          -1.,           0.
211,           1.,           0.,           0.,           0.,          -1.,           0.
212,           1.,           0.,           0.,           0.,          -1.,           0.
** ... 318 like lines cut
*Distribution, name=Ori-2-DiscOrient, location=ELEMENT, Table=Ori-2-DiscOrient_Table
** Description: Distribution generated from Discrete Orientation
,           1.,           0.,           0.,           0.,           1.,           0.
1,           0.,           0.,          -1., -0.0655197501182556, -0.997851252555847,          -0.
2,           0.,           0.,          -1., -0.195434182882309, -0.980716824531555,          -0.
3,           0.,           0.,          -1., -0.321992754936218, -0.946742117404938,          -0.
4,           0.,           0.,          -1., -0.443022280931473, -0.896510601043701,          -0.
5,           0.,           0.,          -1., -0.556444466114044, -0.83088481426239,          -0.
6,           0.,           0.,          -1., -0.660311818122864, -0.750991582870483,          -0.
7,           0.,           0.,          -1., -0.752840638160706, -0.658202826976776,          -0.
8,           0.,           0.,          -1., -0.832442224025726, -0.554111838340759,          -0.
9,           0.,           0.,          -1., -0.897749662399292, -0.44050607085228,          -0.
10,           0.,           0.,          -1., -0.947641491889954, -0.319336235523224,          -0.
11,           0.,           0.,          -1., -0.981261074542999, -0.192682951688766,          -0.
12,           0.,           0.,          -1., -0.998031079769135, -0.0627211034297943,          -0.
13,           0.,          -0.,          -1., -0.997663617134094, 0.0683177337050438,          -0.
14,           0.,          -0.,          -1., -0.98016494512558, 0.198183432221413,          -0.
15,           0.,          -0.,          -1., -0.945926487445831, 0.324381023645401,          -0.
16,           0.,          -0.,          -1., -0.89563924074173, 0.444781243801117,          -0.
17,           0.,          -0.,          -1., -0.830103754997253, 0.557608962059021,          -0.
18,           0.,          -0.,          -1., -0.750435769557953, 0.660943388938904,          -0.
19,           0.,          -0.,          -1., -0.657991647720337, 0.753025233745575,          -0.
20,           0.,          -0.,          -1., -0.5543452501297, 0.832286834716797,          -0.
** ... 172 like lines cut
*Orientation, name=Ori-2, system=RECTANGULAR
Ori-2-DiscOrient
3, 0.
** Region: (tube-1: Generated From Layup)
*Elset, elset=tube-1, generate
   1,  192,    1
** Section: tube-1
*Shell Section, elset=tube-1, composite, orientation=Ori-2, layup=tube
0.0025, 3, T300, 0., Ply-1
0.0025, 3, T300, 45., Ply-2
0.0025, 3, T300, -45., Ply-3
0.0025, 3, T300, 90., Ply-4
*Orientation, name=Ori-1, system=RECTANGULAR
Ori-1-DiscOrient
3, 0.
** Region: (plate-1: Generated From Layup)
*Elset, elset=plate-1, generate
 193,  530,    1
** Section: plate-1
*Shell Section, elset=plate-1, composite, orientation=Ori-1, layup=plate
0.0025, 3, T300, 0., Ply-1
0.0025, 3, T300, 45., Ply-2
0.0025, 3, T300, -45., Ply-3
0.0025, 3, T300, 90., Ply-4
*End Part
**  
**
** ASSEMBLY
**
*Assembly, name=Assembly
**  
*Instance, name=joint-1, part=joint
*End Instance
**  
*Node
      1,           0.,           0.,          0.5
*Nset, nset=all, instance=joint-1, generate
   1,  579,    1
*Elset, elset=all, instance=joint-1, generate
   1,  530,    1
*Nset, nset=builtIn, instance=joint-1
   5,   6,   7,   8,  77,  78,  79,  80,  81,  82,  83,  84,  85,  86,  87,  88
  89,  90,  91,  92,  93,  94,  95,  96,  97,  98,  99, 100, 101, 102, 103, 104
 105, 106, 107, 108, 109, 110, 111
*Elset, elset=builtIn, instance=joint-1
 302, 308, 314, 320, 326, 332, 338, 344, 350, 356, 362, 368, 374, 375, 376, 377
 378, 379, 380, 381, 390, 391, 392, 393, 394, 395, 396, 397, 398, 524, 525, 526
 527, 528, 529, 530
*Nset, nset=force, instance=joint-1, generate
  9,  31,   1
*Elset, elset=force, instance=joint-1, generate
  1,  24,   1
*Nset, nset=load, instance=joint-1
  1,  2,  9, 10, 11, 12, 13, 14, 15, 16, 17, 18, 19, 20, 21, 22
 23, 24, 25, 26, 27, 28, 29, 30, 31
*Elset, elset=load, instance=joint-1, generate
  1,  24,   1
*Nset, nset=plate, instance=joint-1
   3,   4,   5,   6,   7,   8,  39,  40,  41,  42,  43,  44,  45,  46,  47,  48
  49,  50,  51,  52,  53,  54,  55,  56,  57,  58,  59,  60,  61,  69,  70,  71
  72,  73,  74,  75,  76,  77,  78,  79,  80,  81,  82,  83,  84,  85,  86,  87
  88,  89,  90,  91,  92,  93,  94,  95,  96,  97,  98,  99, 100, 101, 102, 103
 104, 105, 106, 107, 108, 109, 110, 111, 112, 113, 114, 115, 116, 117, 118, 119
 281, 282, 283, 284, 285, 286, 287, 288, 289, 290, 291, 292, 293, 294, 295, 296
 297, 298, 299, 300, 301, 302, 303, 304, 305, 306, 307, 308, 309, 310, 311, 312
 313, 314, 315, 316, 317, 318, 319, 320, 321, 322, 323, 324, 325, 326, 327, 328
 329, 330, 331, 332, 333, 334, 335, 336, 337, 338, 339, 340, 341, 342, 343, 344
 345, 346, 347, 348, 349, 350, 351, 352, 353, 354, 355, 356, 357, 358, 359, 360
 361, 362, 363, 364, 365, 366, 367, 368, 369, 370, 371, 372, 373, 374, 375, 376
 377, 378, 379, 380, 381, 382, 383, 384, 385, 386, 387, 388, 389, 390, 391, 392
 393, 394, 395, 396, 397, 398, 399, 400, 401, 402, 403, 404, 405, 406, 407, 408
 409, 410, 411, 412, 413, 414, 415, 416, 417, 418, 419, 420, 421, 422, 423, 424
 425, 426, 427, 428, 429, 430, 431, 432, 433, 434, 435, 436, 437, 438, 439, 440
 441, 442, 443, 444, 445, 446, 447, 448, 449, 450, 451, 452, 453, 454, 455, 456
 457, 458, 459, 460, 461, 462, 463, 464, 465, 466, 467, 468, 469, 470, 471, 472
 473, 474, 475, 476, 477, 478, 479, 480, 481, 482, 483, 484, 485, 486, 487, 488
 489, 490, 491, 492, 493, 494, 495, 496, 497, 498, 499, 500, 501, 502, 503, 504
 505, 506, 507, 508, 509, 510, 511, 512, 513, 514, 515, 516, 517, 518, 519, 520
** ... 4 like lines cut
*Elset, elset=plate, instance=joint-1, generate
 193,  530,    1
*Nset, nset=refPt
 1,
*Nset, nset=tube, instance=joint-1
   1,   2,   3,   4,   9,  10,  11,  12,  13,  14,  15,  16,  17,  18,  19,  20
  21,  22,  23,  24,  25,  26,  27,  28,  29,  30,  31,  32,  33,  34,  35,  36
  37,  38,  39,  40,  41,  42,  43,  44,  45,  46,  47,  48,  49,  50,  51,  52
  53,  54,  55,  56,  57,  58,  59,  60,  61,  62,  63,  64,  65,  66,  67,  68
 120, 121, 122, 123, 124, 125, 126, 127, 128, 129, 130, 131, 132, 133, 134, 135
 136, 137, 138, 139, 140, 141, 142, 143, 144, 145, 146, 147, 148, 149, 150, 151
 152, 153, 154, 155, 156, 157, 158, 159, 160, 161, 162, 163, 164, 165, 166, 167
 168, 169, 170, 171, 172, 173, 174, 175, 176, 177, 178, 179, 180, 181, 182, 183
 184, 185, 186, 187, 188, 189, 190, 191, 192, 193, 194, 195, 196, 197, 198, 199
 200, 201, 202, 203, 204, 205, 206, 207, 208, 209, 210, 211, 212, 213, 214, 215
 216, 217, 218, 219, 220, 221, 222, 223, 224, 225, 226, 227, 228, 229, 230, 231
 232, 233, 234, 235, 236, 237, 238, 239, 240, 241, 242, 243, 244, 245, 246, 247
 248, 249, 250, 251, 252, 253, 254, 255, 256, 257, 258, 259, 260, 261, 262, 263
 264, 265, 266, 267, 268, 269, 270, 271, 272, 273, 274, 275, 276, 277, 278, 279
 280,
*Elset, elset=tube, instance=joint-1, generate
   1,  192,    1
*Nset, nset=ysymm, instance=joint-1
   1,   2,   3,   4,   6,   7,  32,  33,  34,  35,  36,  37,  38,  62,  63,  64
  65,  66,  67,  68,  69,  70,  71,  72,  73,  74,  75,  76, 112, 113, 114, 115
 116, 117, 118, 119
*Elset, elset=ysymm, instance=joint-1
   1,  24,  25,  48,  49,  72,  73,  96,  97, 120, 121, 144, 145, 168, 169, 192
 381, 382, 383, 384, 385, 386, 387, 388, 389, 516, 517, 518, 519, 520, 521, 522
 523, 524
*Surface, type=NODE, name=load
load, 1.
*End Assembly
*Distribution Table, name=Ori-1-DiscOrient_Table
coord3D, coord3D
*Distribution Table, name=Ori-2-DiscOrient_Table
coord3D, coord3D
** 
** MATERIALS
** 
*Material, name=T300
*Elastic, type=LAMINA
 1.56512e+11, 1.2962e+10,       0.23,  6.964e+09,  6.964e+09,  6.964e+09
*Fail Stress
 1.5169e+09, 2.7076e+09,  1.024e+08,   2.53e+08,  1.069e+08,         0.,         0.
** ----------------------------------------------------------------
** 
** STEP: Step-1
** 
*Step, name=Step-1, nlgeom=NO
Total load of 7000 N in the 1-direction
*Static
1., 1., 1e-05, 1.
** 
** OUTPUT REQUESTS
** 
*Restart, write, frequency=0
** 
** FIELD OUTPUT: F-Output-1
** 
*Output, field
*Node Output
U, 
** 
** FIELD OUTPUT: F-Output-2
** 
*Element Output, elset=joint-1.plate-1, directions=YES
1, 2, 3, 4, 5, 6, 7, 8, 9, 10, 11, 12
CFAILURE, S
** 
** FIELD OUTPUT: F-Output-3
** 
*Element Output, elset=joint-1.tube-1, directions=YES
1, 2, 3, 4, 5, 6, 7, 8, 9, 10, 11, 12
CFAILURE, S
** 
** HISTORY OUTPUT: H-Output-1
** 
*Output, history, variable=PRESELECT
*End Step
