*Heading
*Preprint, echo=NO, model=NO, history=NO, contact=NO
**
** PARTS
**
*Part, name=joint
*Node
      1, -0.239999995,           0.,           0.
      2, -0.119999968,           0.,           0.
      3,  0.119999968,           0.,           0.
      4,  0.239999995,           0.,           0.
      5, -0.100000001, 0.0199999642,           0.
      6,  0.100000001, 0.0199999642,           0.
      7, -0.100000001,  0.109999999,           0.
      8,  0.100000001,  0.109999999,           0.
      9, -0.224999994,           0.,           0.
     10, -0.209999993,           0.,           0.
     11, -0.194999993,           0.,           0.
     12, -0.179999977,           0.,           0.
     13, -0.164999977,           0.,           0.
     14, -0.149999976,           0.,           0.
     15, -0.134999976,           0.,           0.
     16, -0.117956735,           0., 0.0220499355
     17, -0.111896634,           0., 0.0433489867
     18, -0.102026023,           0., 0.0631718412
     19, -0.0886810422,           0., 0.0808434561
     20, -0.0723161325,           0., 0.0957620367
** ... 358 like lines cut
*Element, type=S4R
  1,   1,   9, 107,  54
  2,   9,  10, 108, 107
  3,  10,  11, 109, 108
  4,  11,  12, 110, 109
  5,  12,  13, 111, 110
  6,  13,  14, 112, 111
  7,  14,  15, 113, 112
  8,  15,   2,  16, 113
  9,  54, 107, 114,  53
 10, 107, 108, 115, 114
 11, 108, 109, 116, 115
 12, 109, 110, 117, 116
 13, 110, 111, 118, 117
 14, 111, 112, 119, 118
 15, 112, 113, 120, 119
 16, 113,  16,  17, 120
 17,  53, 114, 121,  52
 18, 114, 115, 122, 121
 19, 115, 116, 123, 122
 20, 116, 117, 124, 123
** ... 320 like lines cut
*Nset, nset=tube
   5,   6,   7,   8,  59,  60,  61,  62,  63,  64,  65,  66,  67,  68,  69,  70
  71,  72,  73,  74,  79,  80,  81,  82,  83,  84,  85,  86,  87,  88,  89,  90
  91,  92,  93,  94,  95,  96,  97,  98,  99, 100, 101, 102, 103, 104, 105, 106
 283, 284, 285, 286, 287, 288, 289, 290, 291, 292, 293, 294, 295, 296, 297, 298
 299, 300, 301, 302, 303, 304, 305, 306, 307, 308, 309, 310, 311, 312, 313, 314
 315, 316, 317, 318, 319, 320, 321, 322, 323, 324, 325, 326, 327, 328, 329, 330
 331, 332, 333, 334, 335, 336, 337, 338, 339, 340, 341, 342, 343, 344, 345, 346
 347, 348, 349, 350, 351, 352, 353, 354, 355, 356, 357, 358, 359, 360, 361, 362
 363, 364, 365, 366, 367, 368, 369, 370, 371, 372, 373, 374, 375, 376, 377, 378
*Elset, elset=tube, generate
 222,  340,    1
*Nset, nset=fillet
   2,   3,   5,   6,  16,  17,  18,  19,  20,  21,  22,  23,  24,  25,  26,  27
  28,  29,  30,  31,  55,  56,  57,  58,  59,  60,  61,  62,  63,  64,  65,  66
  67,  68,  69,  70,  71,  72,  73,  74,  75,  76,  77,  78, 219, 220, 221, 222
 223, 224, 225, 226, 227, 228, 229, 230, 231, 232, 233, 234, 235, 236, 237, 238
 239, 240, 241, 242, 243, 244, 245, 246, 247, 248, 249, 250, 251, 252, 253, 254
 255, 256, 257, 258, 259, 260, 261, 262, 263, 264, 265, 266, 267, 268, 269, 270
 271, 272, 273, 274, 275, 276, 277, 278, 279, 280, 281, 282
*Elset, elset=fillet, generate
 137,  221,    1
*Nset, nset=plate
   1,   2,   3,   4,   9,  10,  11,  12,  13,  14,  15,  16,  17,  18,  19,  20
  21,  22,  23,  24,  25,  26,  27,  28,  29,  30,  31,  32,  33,  34,  35,  36
  37,  38,  39,  40,  41,  42,  43,  44,  45,  46,  47,  48,  49,  50,  51,  52
  53,  54, 107, 108, 109, 110, 111, 112, 113, 114, 115, 116, 117, 118, 119, 120
 121, 122, 123, 124, 125, 126, 127, 128, 129, 130, 131, 132, 133, 134, 135, 136
 137, 138, 139, 140, 141, 142, 143, 144, 145, 146, 147, 148, 149, 150, 151, 152
 153, 154, 155, 156, 157, 158, 159, 160, 161, 162, 163, 164, 165, 166, 167, 168
 169, 170, 171, 172, 173, 174, 175, 176, 177, 178, 179, 180, 181, 182, 183, 184
 185, 186, 187, 188, 189, 190, 191, 192, 193, 194, 195, 196, 197, 198, 199, 200
 201, 202, 203, 204, 205, 206, 207, 208, 209, 210, 211, 212, 213, 214, 215, 216
 217, 218
*Elset, elset=plate, generate
   1,  136,    1
*Nset, nset=Set-10
   7,   8,  85,  86,  87,  88,  89,  90,  91,  92,  93,  94,  95,  96,  97,  98
  99, 100
*Elset, elset=Set-10, generate
 228,  340,    7
*Nset, nset=Set-11
  5,  6, 59, 60, 61, 62, 63, 64, 65, 66, 67, 68, 69, 70, 71, 72
 73, 74
*Elset, elset=Set-11
 141, 146, 151, 156, 161, 166, 171, 176, 181, 186, 191, 196, 201, 206, 211, 216
 221, 222, 229, 236, 243, 250, 257, 264, 271, 278, 285, 292, 299, 306, 313, 320
 327, 334
*Nset, nset=Set-12
  1,  2,  9, 10, 11, 12, 13, 14, 15
*Elset, elset=Set-12, generate
 1,  8,  1
*Elset, elset=_tube_SPOS, internal, generate
 222,  340,    1
*Surface, type=ELEMENT, name=tube
_tube_SPOS, SPOS
*Elset, elset=_fillet_SPOS, internal, generate
 137,  221,    1
*Surface, type=ELEMENT, name=fillet
_fillet_SPOS, SPOS
*Elset, elset=_plate_SPOS, internal, generate
   1,  136,    1
*Surface, type=ELEMENT, name=plate
_plate_SPOS, SPOS
*Distribution, name=Ori-1-DiscOrient, location=ELEMENT, Table=Ori-1-DiscOrient_Table
** Description: Distribution generated from Discrete Orientation
,           1.,           0.,           0.,           0.,           1.,           0.
137, 0.97930383682251, 0.180912122130394, -0.0907458662986755, 0.0922683626413345,  9.71445146547012e-17, 0.99573415517807
138, 0.877455770969391, 0.47271591424942, -0.0813082531094551, 0.0922683551907539,  9.71445146547012e-17, 0.99573415517807
139, 0.692784130573273, 0.718281984329224, -0.0641959011554718, 0.0922683551907539,  1.11022302462516e-16, 0.99573415517807
140, 0.443298250436783, 0.895432472229004, -0.0410776324570179, 0.0922683551907539,  9.0205620750794e-17, 0.99573415517807
141, 0.152499064803123, 0.988202571868896, -0.0141311204060912, 0.0922683626413345,  2.94902990916057e-17, 0.99573415517807
142, 0.9459547996521, 0.180912286043167, -0.269147336483002, 0.273662984371185,  1.66533453693773e-16, 0.961825668811798
143, 0.847575068473816, 0.472715973854065, -0.241155877709389, 0.273662984371185,  4.02455846426619e-16, 0.961825668811798
144, 0.669192254543304, 0.718281924724579, -0.190401613712311, 0.273662984371185,  -1.66533453693773e-16, 0.961825668811798
145, 0.428202271461487, 0.895432472229004, -0.121834047138691, 0.273662984371185,  3.19189119579733e-16, 0.961825668811798
146, 0.147305861115456, 0.988202571868896, -0.0419121310114861, 0.273663014173508,  1.38777878078145e-16, 0.961825609207153
147, 0.88039243221283, 0.180912211537361, -0.438383340835571, 0.445738345384598,  2.91433543964104e-16, 0.895163297653198
148, 0.788831174373627, 0.472715944051743, -0.392791271209717, 0.445738345384598,  3.60822483003176e-16, 0.895163297653198
149, 0.622811734676361, 0.718281984329224, -0.310123383998871, 0.445738345384598,  2.22044604925031e-16, 0.895163297653198
150, 0.398524403572083, 0.895432412624359, -0.198441550135612, 0.445738315582275,  5.82867087928207e-16, 0.895163297653198
151, 0.137096390128136, 0.988202571868896, -0.0682658851146698, 0.445738345384598,  7.63278329429795e-17, 0.895163297653198
152, 0.784849405288696, 0.180911734700203, -0.592690765857697, 0.602634608745575,  -1.2490009027033e-16, 0.798017203807831
153, 0.703224718570709, 0.472715854644775, -0.531050622463226, 0.602634608745575,  -2.22044604925031e-16, 0.798017263412476
154, 0.55522221326828, 0.718281984329224, -0.41928431391716, 0.602634608745575,  8.04911692853238e-16, 0.798017263412476
155, 0.355275303125381, 0.895432412624359, -0.268291443586349, 0.602634608745575,  8.32667268468867e-17, 0.798017203807831
156, 0.122218273580074, 0.988202571868896, -0.092294953763485, 0.602634608745575,  2.35922392732846e-16, 0.798017203807831
** ... 65 like lines cut
*Distribution, name=Ori-2-DiscOrient, location=ELEMENT, Table=Ori-2-DiscOrient_Table
** Description: Distribution generated from Discrete Orientation
,           1.,           0.,           0.,           0.,           1.,           0.
1,           1.,  2.89120502125944e-17,  -1.22464685258517e-16,  1.22464685258517e-16,  3.54070469740189e-33,           1.
2,           1.,  2.89120502125944e-17,  -1.22464685258517e-16,  1.22464685258517e-16,  3.54070469740189e-33,           1.
3,           1.,  2.89120502125944e-17,  -1.22464685258517e-16,  1.22464685258517e-16,  3.54070469740189e-33,           1.
4,           1.,  2.89120502125944e-17,  -1.22464685258517e-16,  1.22464685258517e-16,  3.54070469740189e-33,           1.
5,           1.,  2.89120502125944e-17,  -1.22464685258517e-16,  1.22464685258517e-16,  3.54070469740189e-33,           1.
6,           1.,  2.89120502125944e-17,  -1.22464685258517e-16,  1.22464685258517e-16,  3.54070469740189e-33,           1.
7,           1.,  2.89120502125944e-17,  -1.22464685258517e-16,  1.22464685258517e-16,  3.54070469740189e-33,           1.
8,           1.,  2.89120502125944e-17,  -1.22464685258517e-16,  1.22464685258517e-16,  3.54070469740189e-33,           1.
9,           1.,  2.89120502125944e-17,  -1.22464685258517e-16,  1.22464685258517e-16,  3.54070469740189e-33,           1.
10,           1.,  2.89120502125944e-17,  -1.22464685258517e-16,  1.22464685258517e-16,  3.54070469740189e-33,           1.
11,           1.,  2.89120502125944e-17,  -1.22464685258517e-16,  1.22464685258517e-16,  3.54070469740189e-33,           1.
12,           1.,  2.89120502125944e-17,  -1.22464685258517e-16,  1.22464685258517e-16,  3.54070469740189e-33,           1.
13,           1.,  2.89120502125944e-17,  -1.22464685258517e-16,  1.22464685258517e-16,  3.54070469740189e-33,           1.
14,           1.,  2.89120502125944e-17,  -1.22464685258517e-16,  1.22464685258517e-16,  3.54070469740189e-33,           1.
15,           1.,  2.89120502125944e-17,  -1.22464685258517e-16,  1.22464685258517e-16,  3.54070469740189e-33,           1.
16,           1.,  2.89120502125944e-17,  -1.22464685258517e-16,  1.22464685258517e-16,  3.54070469740189e-33,           1.
17,           1.,  2.89120502125944e-17,  -1.22464685258517e-16,  1.22464685258517e-16,  3.54070469740189e-33,           1.
18,           1.,  2.89120502125944e-17,  -1.22464685258517e-16,  1.22464685258517e-16,  3.54070469740189e-33,           1.
19,           1.,  2.89120502125944e-17,  -1.22464685258517e-16,  1.22464685258517e-16,  3.54070469740189e-33,           1.
20,           1.,  2.89120502125944e-17,  -1.22464685258517e-16,  1.22464685258517e-16,  3.54070469740189e-33,           1.
** ... 116 like lines cut
*Distribution, name=Ori-3-DiscOrient, location=ELEMENT, Table=Ori-3-DiscOrient_Table
** Description: Distribution generated from Discrete Orientation
,           1.,           0.,           0.,           0.,           1.,           0.
222,  -1.18147840572659e-18,           1.,  -1.27501834685883e-17, 0.0922683551907539,  1.28048063403382e-17, 0.99573415517807
223,  -1.18147840572659e-18,           1.,  -1.27501834685883e-17, 0.0922683551907539,  1.28048063403382e-17, 0.99573415517807
224,  -1.18147840572659e-18,           1.,  -1.27501834685883e-17, 0.0922683551907539,  1.28048063403382e-17, 0.99573415517807
225,  -1.18147840572659e-18,           1.,  -1.27501834685883e-17, 0.0922683551907539,  1.28048063403382e-17, 0.99573415517807
226,  -1.18147840572659e-18,           1.,  -1.27501834685883e-17, 0.0922683551907539,  1.28048063403382e-17, 0.99573415517807
227,  -1.18147840572659e-18,           1.,  -1.27501834685883e-17, 0.0922683551907539,  1.28048063403382e-17, 0.99573415517807
228,  -1.18147840572659e-18,           1.,  -1.27501834685883e-17, 0.0922683551907539,  1.28048063403382e-17, 0.99573415517807
229,  -1.03932745881838e-17,           1.,  -3.65285704743051e-17, 0.273662984371185,  3.79783699339268e-17, 0.961825668811798
230,  -1.03932745881838e-17,           1.,  -3.65285704743051e-17, 0.273662984371185,  3.79783699339268e-17, 0.961825668811798
231,  -1.03932745881838e-17,           1.,  -3.65285704743051e-17, 0.273662984371185,  3.79783699339268e-17, 0.961825668811798
232,  -1.03932745881838e-17,           1.,  -3.65285704743051e-17, 0.273662984371185,  3.79783699339268e-17, 0.961825668811798
233,  -1.03932745881838e-17,           1.,  -3.65285704743051e-17, 0.273662984371185,  3.79783699339268e-17, 0.961825668811798
234,  -1.03932745881838e-17,           1.,  -3.65285704743051e-17, 0.273662984371185,  3.79783699339268e-17, 0.961825668811798
235,  -1.03932745881838e-17,           1.,  -3.65285704743051e-17, 0.273662984371185,  3.79783699339268e-17, 0.961825668811798
236,  -2.75727620828098e-17,           1.,  -5.53735712430556e-17, 0.44573837518692,  6.18586242320794e-17, 0.895163297653198
237,  -2.75727620828098e-17,           1.,  -5.53735712430556e-17, 0.44573837518692,  6.18586242320794e-17, 0.895163297653198
238,  -2.75727620828098e-17,           1.,  -5.53735712430556e-17, 0.44573837518692,  6.18586242320794e-17, 0.895163297653198
239,  -2.75727620828098e-17,           1.,  -5.53735712430556e-17, 0.44573837518692,  6.18586242320794e-17, 0.895163297653198
240,  -2.75727620828098e-17,           1.,  -5.53735712430556e-17, 0.44573837518692,  6.18586242320794e-17, 0.895163297653198
241,  -2.75727620828098e-17,           1.,  -5.53735712430556e-17, 0.44573837518692,  6.18586242320794e-17, 0.895163297653198
** ... 99 like lines cut
*Orientation, name=Ori-2, system=RECTANGULAR
Ori-2-DiscOrient
3, 0.
** Region: (plate-1: Generated From Layup)
*Elset, elset=plate-1, generate
   1,  136,    1
** Section: plate-1
*Shell Section, elset=plate-1, composite, orientation=Ori-2, layup=plate
0.0025, 3, T300, 0., Ply-1
0.0025, 3, T300, 45., Ply-2
0.0025, 3, T300, -45., Ply-3
0.0025, 3, T300, 90., Ply-4
*Orientation, name=Ori-1, system=RECTANGULAR
Ori-1-DiscOrient
3, 0.
** Region: (fillet-1: Generated From Layup)
*Elset, elset=fillet-1, generate
 137,  221,    1
** Section: fillet-1
*Shell Section, elset=fillet-1, composite, orientation=Ori-1, layup=fillet
0.0025, 3, T300, 0., Ply-1
0.0025, 3, T300, 45., Ply-2
0.0025, 3, T300, -45., Ply-3
0.0025, 3, T300, 90., Ply-4
*Orientation, name=Ori-3, system=RECTANGULAR
Ori-3-DiscOrient
3, 0.
** Region: (tube-1: Generated From Layup)
*Elset, elset=tube-1, generate
 222,  340,    1
** Section: tube-1
*Shell Section, elset=tube-1, composite, orientation=Ori-3, layup=tube
0.0025, 3, T300, 0., Ply-1
0.0025, 3, T300, 45., Ply-2
0.0025, 3, T300, -45., Ply-3
0.0025, 3, T300, 90., Ply-4
*End Part
**  
**
** ASSEMBLY
**
*Assembly, name=Assembly
**  
*Instance, name=joint-1, part=joint
          0.,           0.,           0.
          0.,           0.,           0.,           1.,           0.,           0.,          90.
*End Instance
**  
*Nset, nset=cut, instance=joint-1
   1,   4,   7,   8,  39,  40,  41,  42,  43,  44,  45,  46,  47,  48,  49,  50
  51,  52,  53,  54,  85,  86,  87,  88,  89,  90,  91,  92,  93,  94,  95,  96
  97,  98,  99, 100
*Elset, elset=cut, instance=joint-1
   1,   9,  17,  25,  33,  41,  49,  57,  65,  73,  81,  89,  97, 105, 113, 121
 129, 228, 235, 242, 249, 256, 263, 270, 277, 284, 291, 298, 305, 312, 319, 326
 333, 340
*Nset, nset=ysymm, instance=joint-1
   2,   3,   5,   6,   9,  10,  11,  12,  13,  14,  15,  32,  33,  34,  35,  36
  37,  38,  55,  56,  57,  58,  75,  76,  77,  78,  79,  80,  81,  82,  83,  84
 101, 102, 103, 104, 105, 106
*Elset, elset=ysymm, instance=joint-1
   1,   2,   3,   4,   5,   6,   7,   8, 129, 130, 131, 132, 133, 134, 135, 136
 137, 138, 139, 140, 141, 217, 218, 219, 220, 221, 222, 223, 224, 225, 226, 227
 228, 334, 335, 336, 337, 338, 339, 340
*End Assembly
*Distribution Table, name=Ori-1-DiscOrient_Table
coord3D, coord3D
*Distribution Table, name=Ori-2-DiscOrient_Table
coord3D, coord3D
*Distribution Table, name=Ori-3-DiscOrient_Table
coord3D, coord3D
** 
** MATERIALS
** 
*Material, name=T300
*Elastic, type=LAMINA
 1.56512e+11, 1.2962e+10,       0.23,  6.964e+09,  6.964e+09,  6.964e+09
*Fail Stress
 1.5169e+09, 2.7076e+09,  1.024e+08,   2.53e+08,  1.069e+08,         0.,         0.
** ----------------------------------------------------------------
** 
** STEP: Step-1
** 
*Step, name=Step-1, nlgeom=NO
*Static
1., 1., 1e-05, 1.
** 
** OUTPUT REQUESTS
** 
*Restart, write, frequency=0
** 
** FIELD OUTPUT: F-Output-1
** 
*Output, field
*Node Output
U, 
** 
** FIELD OUTPUT: F-Output-4
** 
*Element Output, elset=joint-1.fillet-1, directions=YES
1, 2, 3, 4, 5, 6, 7, 8, 9, 10, 11, 12
CFAILURE, S
** 
** FIELD OUTPUT: F-Output-2
** 
*Element Output, elset=joint-1.plate-1, directions=YES
1, 2, 3, 4, 5, 6, 7, 8, 9, 10, 11, 12
CFAILURE, S
** 
** FIELD OUTPUT: F-Output-3
** 
*Element Output, elset=joint-1.tube-1, directions=YES
1, 2, 3, 4, 5, 6, 7, 8, 9, 10, 11, 12
CFAILURE, S
** 
** HISTORY OUTPUT: H-Output-1
** 
*Output, history, variable=PRESELECT
*End Step
