 Abaqus/Standard 2023                  DATE 08-Dec-2024 TIME 19:35:04
 SUMMARY OF JOB INFORMATION:
 STEP  INC ATT SEVERE EQUIL TOTAL  TOTAL      STEP       INC OF       DOF    IF
               DISCON ITERS ITERS  TIME/    TIME/LPF    TIME/LPF    MONITOR RIKS
               ITERS               FREQ
   1     1   1     0     1     1  360.       360.       360.0     
   1     2   1     0     1     1  720.       720.       360.0     
   1     3   1     0     1     1  1.08e+03   1.08e+03   360.0     
   1     4   1     0     1     1  1.44e+03   1.44e+03   360.0     
   1     5   1     0     1     1  1.80e+03   1.80e+03   360.0     
   2     1   1     0     2     2  1.81e+03   5.55       5.550     
   2     2   1     0     1     1  1.81e+03   11.1       5.550     
   2     3   1     0     1     1  1.82e+03   16.6       5.550     
   2     4   1     0     1     1  1.82e+03   22.2       5.550     
   2     5   1     0     1     1  1.83e+03   27.8       5.550     
   2     6   1     0     1     1  1.83e+03   33.3       5.550     
   2     7   1     0     1     1  1.84e+03   38.8       5.550     
   2     8   1     0     1     1  1.84e+03   44.4       5.550     
   2     9   1     0     1     1  1.85e+03   49.9       5.550     
   2    10   1     0     1     1  1.86e+03   55.5       5.550     
   2    11   1     0     1     1  1.86e+03   61.0       5.550     
   2    12   1     0     1     1  1.87e+03   66.6       5.550     
   2    13   1     0     1     1  1.87e+03   72.1       5.550     
   2    14   1     0     1     1  1.88e+03   77.7       5.550     
   2    15   1     0     1     1  1.88e+03   83.2       5.550     
   2    16   1     0     1     1  1.89e+03   88.8       5.550     
   2    17   1     0     1     1  1.89e+03   94.3       5.550     
   2    18   1     0     1     1  1.90e+03   99.9       5.550     
   2    19   1     0     1     1  1.91e+03   105.       5.550     
   2    20   1     0     1     1  1.91e+03   111.       5.550     
   2    21   1     0     1     1  1.92e+03   117.       5.550     
   2    22   1     0     1     1  1.92e+03   122.       5.550     
   2    23   1     0     1     1  1.93e+03   128.       5.550     
   2    24   1     0     1     1  1.93e+03   133.       5.550     
   2    25   1     0     1     1  1.94e+03   139.       5.550     
   2    26   1     0     1     1  1.94e+03   144.       5.550     
   2    27   1     0     1     1  1.95e+03   150.       5.550     
   2    28   1     0     1     1  1.96e+03   155.       5.550     
   2    29   1     0     1     1  1.96e+03   161.       5.550     
   2    30   1     0     1     1  1.97e+03   167.       5.550     
   2    31   1     0     2     2  1.97e+03   172.       5.550     
   2    32   1     0     2     2  1.98e+03   178.       5.550     
   2    33   1     0     2     2  1.98e+03   183.       5.550     
   2    34   1     0     2     2  1.99e+03   189.       5.550     
   2    35   1     0     2     2  1.99e+03   194.       5.550     
   2    36   1     0     2     2  2.00e+03   200.       5.550     
   2    37   1     0     2     2  2.01e+03   205.       5.550     
   2    38   1     0     2     2  2.01e+03   211.       5.550     
   2    39   1     0     2     2  2.02e+03   216.       5.550     
   2    40   1     0     2     2  2.02e+03   222.       5.550     
   2    41   1     0     2     2  2.03e+03   228.       5.550     
   2    42   1     0     2     2  2.03e+03   233.       5.550     
   2    43   1     0     2     2  2.04e+03   239.       5.550     
   2    44   1     0     2     2  2.04e+03   244.       5.550     
   2    45   1     0     2     2  2.05e+03   250.       5.550     
   2    46   1     0     2     2  2.06e+03   255.       5.550     
   2    47   1     0     2     2  2.06e+03   261.       5.550     
   2    48   1     0     2     2  2.07e+03   266.       5.550     
   2    49   1     0     2     2  2.07e+03   272.       5.550     
   2    50   1     0     2     2  2.08e+03   278.       5.550     
   2    51   1     0     3     3  2.08e+03   283.       5.550     
   2    52   1     0     3     3  2.09e+03   289.       5.550     
   2    53   1     0     3     3  2.09e+03   294.       5.550     
   2    54   1     0     3     3  2.10e+03   300.       5.550     
   2    55   1     0     2     2  2.11e+03   305.       5.550     
   2    56   1     0     3     3  2.11e+03   311.       5.550     
   2    57   1     0     2     2  2.12e+03   316.       5.550     
   2    58   1     0     2     2  2.12e+03   322.       5.550     
   2    59   1     0     3     3  2.13e+03   327.       5.550     
   2    60   1     0     2     2  2.13e+03   333.       5.550     
   2    61   1     0     2     2  2.14e+03   339.       5.550     
   2    62   1     0     2     2  2.14e+03   344.       5.550     
   2    63   1     0     2     2  2.15e+03   350.       5.550     
   2    64   1     0     2     2  2.16e+03   355.       5.550     
   2    65   1     0     2     2  2.16e+03   361.       5.550     
   2    66   1     0     2     2  2.17e+03   366.       5.550     
   2    67   1     0     2     2  2.17e+03   372.       5.550     
   2    68   1     0     2     2  2.18e+03   377.       5.550     
   2    69   1     0     2     2  2.18e+03   383.       5.550     
   2    70   1     0     2     2  2.19e+03   389.       5.550     
   2    71   1     0     2     2  2.19e+03   394.       5.550     
   2    72   1     0     2     2  2.20e+03   400.       5.550     
   2    73   1     0     1     1  2.20e+03   402.       2.400     
   2    74   1     0     2     2  2.21e+03   405.       3.150     
   2    75   1     0     1     1  2.21e+03   406.       0.8500    
   2    76   1     0     2     2  2.21e+03   411.       4.700     
   2    77   1     0     2     2  2.22e+03   416.       5.550     
   2    78   1     0     2     2  2.22e+03   422.       5.550     
   2    79   1     0     3     3  2.23e+03   427.       5.550     
   2    80   1     0     4     4  2.23e+03   433.       5.550     
   2    81   1     0     4     4  2.24e+03   438.       5.550     
   2    82   1     0     4     4  2.24e+03   444.       5.550     
   2    83   1     0     4     4  2.25e+03   450.       5.550     
   2    84   1     0     4     4  2.25e+03   454.       4.450     
   2    85   1     0     1     1  2.26e+03   455.       1.100     
   2    86   1     0     3     3  2.26e+03   461.       5.550     
   2    87   1     0     3     3  2.27e+03   466.       5.550     
   2    88   1     0     3     3  2.27e+03   472.       5.550     
   2    89   1     0     3     3  2.28e+03   477.       5.550     
   2    90   1     0     4     4  2.28e+03   483.       5.550     
   2    91   1     0     3     3  2.29e+03   488.       5.550     
   2    92   1     0     3     3  2.29e+03   494.       5.550     
   2    93   1     0     4     4  2.30e+03   500.       5.550     
   2    94   1     0     4     4  2.31e+03   505.       5.550     
   2    95   1     0     4     4  2.31e+03   511.       5.550     
   2    96   1     0     4     4  2.32e+03   516.       5.550     
   2    97   1     0     4     4  2.32e+03   522.       5.550     
   2    98   1     0     4     4  2.33e+03   527.       5.550     
   2    99   1     0     4     4  2.33e+03   533.       5.550     
   2   100   1     0     4     4  2.34e+03   538.       5.550     
   2   101   1     0     4     4  2.34e+03   544.       5.550     
   2   102   1     0     4     4  2.35e+03   549.       5.550     
   2   103   1     0     4     4  2.36e+03   555.       5.550     
                          
 THE ANALYSIS HAS COMPLETED SUCCESSFULLY
