1

   Abaqus 2023                                  Date 08-Dec-2024   Time 19:34:28
   For use by CSC_ IT CENTER FOR SCIENCE LTD under license from Dassault Systemes or its subsidiary.

                                                                                 
                                                                                 
 STEP    1     INCREMENT     1     STEP TIME    0.00    


                        S T E P       1     C O U P L E D - T E M P E R A T U R E - D I S P L A C E M E N T   A N A L Y S I S


                                                                                          

          FIXED TIME INCREMENTS
          TIME INCREMENT IS                                     360.    
          TIME PERIOD IS                                       1.800E+03

          CREEP AND SWELLING EFFECTS ARE OMITTED IN THIS STEP
          THE RATE DEPENDENCY WILL BE CONSIDERED IN THIS STEP

          CREEP AND SWELLING EFFECTS WILL BE IGNORED.

 CONVERGENCE TOLERANCE PARAMETERS FOR FORCE    
     CRITERION FOR RESIDUAL FORCE     FOR A NONLINEAR PROBLEM          5.000E-03
     CRITERION FOR DISP.    CORRECTION IN A NONLINEAR PROBLEM          1.000E-02
     INITIAL VALUE OF TIME AVERAGE FORCE                               1.000E-02
     AVERAGE FORCE     IS TIME AVERAGE FORCE    
     ALTERNATE CRIT. FOR RESIDUAL FORCE     FOR A NONLINEAR PROBLEM    2.000E-02
     CRITERION FOR ZERO FORCE     RELATIVE TO TIME AVRG. FORCE         1.000E-05
     CRITERION FOR RESIDUAL FORCE     WHEN THERE IS ZERO FLUX          1.000E-05
     CRITERION FOR DISP.    CORRECTION WHEN THERE IS ZERO FLUX         1.000E-03
     CRITERION FOR RESIDUAL FORCE     FOR A LINEAR INCREMENT           1.000E-08
     FIELD CONVERSION RATIO                                             1.00    
     CRITERION FOR ZERO FORCE     REL. TO TIME AVRG. MAX. FORCE        1.000E-05
     CRITERION FOR ZERO DISP.    RELATIVE TO CHARACTERISTIC LENGTH     1.000E-08

 CONVERGENCE TOLERANCE PARAMETERS FOR HEAT FLUX
     CRITERION FOR RESIDUAL HEAT FLUX FOR A NONLINEAR PROBLEM          5.000E-03
     CRITERION FOR TEMP.    CORRECTION IN A NONLINEAR PROBLEM          1.000E-02
     INITIAL VALUE OF TIME AVERAGE HEAT FLUX                           1.000E-02
     AVERAGE HEAT FLUX IS TIME AVERAGE HEAT FLUX
     ALTERNATE CRIT. FOR RESIDUAL HEAT FLUX FOR A NONLINEAR PROBLEM    2.000E-02
     CRITERION FOR ZERO HEAT FLUX RELATIVE TO TIME AVRG. HEAT FLUX     1.000E-05
     CRITERION FOR RESIDUAL HEAT FLUX WHEN THERE IS ZERO FLUX          1.000E-05
     CRITERION FOR TEMP.    CORRECTION WHEN THERE IS ZERO FLUX         1.000E-03
     CRITERION FOR RESIDUAL HEAT FLUX FOR A LINEAR INCREMENT           1.000E-08
     FIELD CONVERSION RATIO                                             1.00    
     CRITERION FOR ZERO HEAT FLUX REL. TO TIME AVRG. MAX. HEAT FLUX    1.000E-05

     VOLUMETRIC STRAIN COMPATIBILITY TOLERANCE FOR HYBRID SOLIDS       1.000E-05
     AXIAL STRAIN COMPATIBILITY TOLERANCE FOR HYBRID BEAMS             1.000E-05
     TRANS. SHEAR STRAIN COMPATIBILITY TOLERANCE FOR HYBRID BEAMS      1.000E-05
     SOFT CONTACT CONSTRAINT COMPATIBILITY TOLERANCE FOR P>P0          5.000E-03
     SOFT CONTACT CONSTRAINT COMPATIBILITY TOLERANCE FOR P=0.0         0.100    
     CONTACT FORCE ERROR TOLERANCE FOR CONVERT SDI=YES                 1.00    
     DISPLACEMENT COMPATIBILITY TOLERANCE FOR DCOUP ELEMENTS           1.000E-05
     ROTATION COMPATIBILITY TOLERANCE FOR DCOUP ELEMENTS               1.000E-05

 EQUILIBRIUM WILL BE CHECKED FOR SEVERE DISCONTINUITY ITERATIONS

 ITERATION CONTROL PARAMETERS:
     FIRST EQUILIBRIUM ITERATION FOR CONSECUTIVE DIVERGENCE CHECK              4
     EQUILIBRIUM ITERATION AFTER WHICH ALTERNATE RESIDUAL IS USED              9
     MAXIMUM EQUILIBRIUM ITERATIONS ALLOWED                                   16
     MAXIMUM ITERATIONS FOR SEVERE DISCONTINUITIES                            12
     GLOBAL STABILIZATION CONTROL IS NOT USED

          PRINT OF INCREMENT NUMBER, TIME, ETC., EVERY    1  INCREMENTS

     THE MAXIMUM NUMBER OF INCREMENTS IN THIS STEP IS                 1000000

          LARGE DISPLACEMENT THEORY WILL BE USED

          UNSYMMETRIC MATRIX STORAGE AND SOLUTION WILL BE USED

     LINEAR EXTRAPOLATION WILL BE USED

     CHARACTERISTIC ELEMENT LENGTH     1.645E-04

     DETAILS REGARDING ACTUAL SOLUTION WAVEFRONT REQUESTED

     DETAILED OUTPUT OF DIAGNOSTICS TO DATABASE REQUESTED

     PRINT OF INCREMENT NUMBER, TIME, ETC., TO THE MESSAGE FILE EVERY     1  INCREMENTS

     ELEMENT OPERATIONS WILL BE CARRIED OUT IN PARALLEL USING   8 THREADS ON 1 DOMAIN

     PARALLEL CONTACT TRACKING ENABLED


     COLLECTING MODEL CONSTRAINT INFORMATION FOR OVERCONSTRAINT CHECKS

     COLLECTING STEP CONSTRAINT INFORMATION FOR OVERCONSTRAINT CHECKS


  INCREMENT     1 STARTS. ATTEMPT NUMBER  1, TIME INCREMENT   360.    
 
     INITIAL ELEMENT LOAD BALANCE
            DOMAIN    1     THREAD    NUMBER OF ELEMENTS
                              1            14960
                              2            15295
                              3            15296
                              4            15264
                              5            15248
                              6            15128
                              7            15256
                              8            15248
 
	UNSYMMETRIC DIRECT SPARSE SOLVER RUNNING ON
 	1 HOST:        1 MPI RANK  x 8 THREADS
 	NUMBER OF EQUATIONS:     547412
 	NUMBER OF RHS:           1
 	NUMBER OF FLOPS:         4.003e+12

     CHECK POINT  START OF SOLVER     

     CHECK POINT  END OF SOLVER       

       ELAPSED USER TIME (SEC)      =   140.75    
       ELAPSED SYSTEM TIME (SEC)    =   5.6200    
       ELAPSED TOTAL CPU TIME (SEC) =   146.37    
       ELAPSED WALLCLOCK TIME (SEC) =           18

               CONVERGENCE CHECKS FOR EQUILIBRIUM ITERATION     1


 AVERAGE FORCE                       0.00       TIME AVG. FORCE       1.000E-02
 ALL FORCE     RESIDUALS ARE ZERO
 ALL DISP.    INCREMENTS ARE ZERO
 ALL CORRECTION TO DISP.    ARE ZERO
          THERE IS ZERO FORCE     EVERYWHERE

 AVERAGE HEAT FLUX                  7.012E-14   TIME AVG. HEAT FLUX   1.000E-02
 LARGEST RESIDUAL HEAT FLUX         6.118E-16   AT NODE       7423   DOF 11
   INSTANCE: NDBR6                                                                           
 LARGEST INCREMENT OF TEMP.          8.66       AT NODE          1   DOF 11
   INSTANCE: NDBR6                                                                           
 LARGEST CORRECTION TO TEMP.         8.66       AT NODE          1   DOF 11
   INSTANCE: NDBR6                                                                           
          THERE IS ZERO HEAT FLUX EVERYWHERE
 

 ***WARNING: THERE IS ZERO HEAT FLUX EVERYWHERE IN THE MODEL BASED ON THE 
             DEFAULT CRITERION. PLEASE CHECK THE VALUE OF THE AVERAGE HEAT FLUX 
             DURING THE CURRENT ITERATION TO VERIFY THAT THE HEAT FLUX IS SMALL 
             ENOUGH TO BE TREATED AS ZERO. IF NOT, PLEASE USE THE SOLUTION 
             CONTROLS TO RESET THE CRITERION FOR ZERO HEAT FLUX.

 ITERATION SUMMARY FOR THE INCREMENT:   1 TOTAL ITERATIONS, OF WHICH
   0 ARE SEVERE DISCONTINUITY ITERATIONS AND  1 ARE EQUILIBRIUM ITERATIONS.

 TIME INCREMENT COMPLETED   360.    ,  FRACTION OF STEP COMPLETED  0.200    
 STEP TIME COMPLETED        360.    ,  TOTAL TIME COMPLETED         360.    


  INCREMENT     2 STARTS. ATTEMPT NUMBER  1, TIME INCREMENT   360.    
 
	UNSYMMETRIC DIRECT SPARSE SOLVER RUNNING ON
 	1 HOST:        1 MPI RANK  x 8 THREADS
 	NUMBER OF EQUATIONS:     547412
 	NUMBER OF RHS:           1
 	NUMBER OF FLOPS:         4.003e+12

     CHECK POINT  START OF SOLVER     

     CHECK POINT  END OF SOLVER       

       ELAPSED USER TIME (SEC)      =   141.23    
       ELAPSED SYSTEM TIME (SEC)    =  0.56000    
       ELAPSED TOTAL CPU TIME (SEC) =   141.79    
       ELAPSED WALLCLOCK TIME (SEC) =           18

               CONVERGENCE CHECKS FOR EQUILIBRIUM ITERATION     1


 AVERAGE FORCE                       0.00       TIME AVG. FORCE       1.000E-02
 ALL FORCE     RESIDUALS ARE ZERO
 ALL DISP.    INCREMENTS ARE ZERO
 ALL CORRECTION TO DISP.    ARE ZERO
          THERE IS ZERO FORCE     EVERYWHERE

 AVERAGE HEAT FLUX                  4.933E-14   TIME AVG. HEAT FLUX   1.000E-02
 LARGEST RESIDUAL HEAT FLUX        -1.210E-16   AT NODE       6951   DOF 11
   INSTANCE: NDBR6                                                                           
 LARGEST INCREMENT OF TEMP.          2.17       AT NODE      15704   DOF 11
   INSTANCE: NDBR6                                                                           
 LARGEST CORRECTION TO TEMP.        -8.66       AT NODE          1   DOF 11
   INSTANCE: NDBR6                                                                           
          THERE IS ZERO HEAT FLUX EVERYWHERE
 

 ***WARNING: THERE IS ZERO HEAT FLUX EVERYWHERE IN THE MODEL BASED ON THE 
             DEFAULT CRITERION. PLEASE CHECK THE VALUE OF THE AVERAGE HEAT FLUX 
             DURING THE CURRENT ITERATION TO VERIFY THAT THE HEAT FLUX IS SMALL 
             ENOUGH TO BE TREATED AS ZERO. IF NOT, PLEASE USE THE SOLUTION 
             CONTROLS TO RESET THE CRITERION FOR ZERO HEAT FLUX.

 ITERATION SUMMARY FOR THE INCREMENT:   1 TOTAL ITERATIONS, OF WHICH
   0 ARE SEVERE DISCONTINUITY ITERATIONS AND  1 ARE EQUILIBRIUM ITERATIONS.

 TIME INCREMENT COMPLETED   360.    ,  FRACTION OF STEP COMPLETED  0.400    
 STEP TIME COMPLETED        720.    ,  TOTAL TIME COMPLETED         720.    


  INCREMENT     3 STARTS. ATTEMPT NUMBER  1, TIME INCREMENT   360.    
 
	UNSYMMETRIC DIRECT SPARSE SOLVER RUNNING ON
 	1 HOST:        1 MPI RANK  x 8 THREADS
 	NUMBER OF EQUATIONS:     547412
 	NUMBER OF RHS:           1
 	NUMBER OF FLOPS:         4.003e+12

     CHECK POINT  START OF SOLVER     

     CHECK POINT  END OF SOLVER       

       ELAPSED USER TIME (SEC)      =   141.06    
       ELAPSED SYSTEM TIME (SEC)    =  0.48000    
       ELAPSED TOTAL CPU TIME (SEC) =   141.54    
       ELAPSED WALLCLOCK TIME (SEC) =           18

               CONVERGENCE CHECKS FOR EQUILIBRIUM ITERATION     1


 AVERAGE FORCE                       0.00       TIME AVG. FORCE       1.000E-02
 ALL FORCE     RESIDUALS ARE ZERO
 ALL DISP.    INCREMENTS ARE ZERO
 ALL CORRECTION TO DISP.    ARE ZERO
          THERE IS ZERO FORCE     EVERYWHERE

 AVERAGE HEAT FLUX                  3.752E-14   TIME AVG. HEAT FLUX   1.000E-02
 LARGEST RESIDUAL HEAT FLUX        -1.711E-17   AT NODE       7436   DOF 11
   INSTANCE: NDBR6                                                                           
 LARGEST INCREMENT OF TEMP.          1.55       AT NODE      16180   DOF 11
   INSTANCE: NDBR6                                                                           
 LARGEST CORRECTION TO TEMP.        -1.15       AT NODE      15473   DOF 11
   INSTANCE: NDBR6                                                                           
          THERE IS ZERO HEAT FLUX EVERYWHERE
 

 ***WARNING: THERE IS ZERO HEAT FLUX EVERYWHERE IN THE MODEL BASED ON THE 
             DEFAULT CRITERION. PLEASE CHECK THE VALUE OF THE AVERAGE HEAT FLUX 
             DURING THE CURRENT ITERATION TO VERIFY THAT THE HEAT FLUX IS SMALL 
             ENOUGH TO BE TREATED AS ZERO. IF NOT, PLEASE USE THE SOLUTION 
             CONTROLS TO RESET THE CRITERION FOR ZERO HEAT FLUX.

 ITERATION SUMMARY FOR THE INCREMENT:   1 TOTAL ITERATIONS, OF WHICH
   0 ARE SEVERE DISCONTINUITY ITERATIONS AND  1 ARE EQUILIBRIUM ITERATIONS.

 TIME INCREMENT COMPLETED   360.    ,  FRACTION OF STEP COMPLETED  0.600    
 STEP TIME COMPLETED       1.080E+03,  TOTAL TIME COMPLETED        1.080E+03


  INCREMENT     4 STARTS. ATTEMPT NUMBER  1, TIME INCREMENT   360.    
 
	UNSYMMETRIC DIRECT SPARSE SOLVER RUNNING ON
 	1 HOST:        1 MPI RANK  x 8 THREADS
 	NUMBER OF EQUATIONS:     547412
 	NUMBER OF RHS:           1
 	NUMBER OF FLOPS:         4.003e+12

     CHECK POINT  START OF SOLVER     

     CHECK POINT  END OF SOLVER       

       ELAPSED USER TIME (SEC)      =   141.67    
       ELAPSED SYSTEM TIME (SEC)    =  0.53000    
       ELAPSED TOTAL CPU TIME (SEC) =   142.20    
       ELAPSED WALLCLOCK TIME (SEC) =           18

               CONVERGENCE CHECKS FOR EQUILIBRIUM ITERATION     1


 AVERAGE FORCE                       0.00       TIME AVG. FORCE       1.000E-02
 ALL FORCE     RESIDUALS ARE ZERO
 ALL DISP.    INCREMENTS ARE ZERO
 ALL CORRECTION TO DISP.    ARE ZERO
          THERE IS ZERO FORCE     EVERYWHERE

 AVERAGE HEAT FLUX                  2.820E-14   TIME AVG. HEAT FLUX   1.000E-02
 LARGEST RESIDUAL HEAT FLUX        -7.462E-18   AT NODE       7426   DOF 11
   INSTANCE: NDBR6                                                                           
 LARGEST INCREMENT OF TEMP.          1.17       AT NODE     123339   DOF 11
   INSTANCE: NDBR6                                                                           
 LARGEST CORRECTION TO TEMP.       -0.518       AT NODE      15819   DOF 11
   INSTANCE: NDBR6                                                                           
          THERE IS ZERO HEAT FLUX EVERYWHERE
 

 ***WARNING: THERE IS ZERO HEAT FLUX EVERYWHERE IN THE MODEL BASED ON THE 
             DEFAULT CRITERION. PLEASE CHECK THE VALUE OF THE AVERAGE HEAT FLUX 
             DURING THE CURRENT ITERATION TO VERIFY THAT THE HEAT FLUX IS SMALL 
             ENOUGH TO BE TREATED AS ZERO. IF NOT, PLEASE USE THE SOLUTION 
             CONTROLS TO RESET THE CRITERION FOR ZERO HEAT FLUX.

 ITERATION SUMMARY FOR THE INCREMENT:   1 TOTAL ITERATIONS, OF WHICH
   0 ARE SEVERE DISCONTINUITY ITERATIONS AND  1 ARE EQUILIBRIUM ITERATIONS.

 TIME INCREMENT COMPLETED   360.    ,  FRACTION OF STEP COMPLETED  0.800    
 STEP TIME COMPLETED       1.440E+03,  TOTAL TIME COMPLETED        1.440E+03


  INCREMENT     5 STARTS. ATTEMPT NUMBER  1, TIME INCREMENT   360.    
 
	UNSYMMETRIC DIRECT SPARSE SOLVER RUNNING ON
 	1 HOST:        1 MPI RANK  x 8 THREADS
 	NUMBER OF EQUATIONS:     547412
 	NUMBER OF RHS:           1
 	NUMBER OF FLOPS:         4.003e+12

     CHECK POINT  START OF SOLVER     

     CHECK POINT  END OF SOLVER       

       ELAPSED USER TIME (SEC)      =   140.34    
       ELAPSED SYSTEM TIME (SEC)    =  0.48000    
       ELAPSED TOTAL CPU TIME (SEC) =   140.82    
       ELAPSED WALLCLOCK TIME (SEC) =           18

               CONVERGENCE CHECKS FOR EQUILIBRIUM ITERATION     1


 AVERAGE FORCE                       0.00       TIME AVG. FORCE       1.000E-02
 ALL FORCE     RESIDUALS ARE ZERO
 ALL DISP.    INCREMENTS ARE ZERO
 ALL CORRECTION TO DISP.    ARE ZERO
          THERE IS ZERO FORCE     EVERYWHERE

 AVERAGE HEAT FLUX                  2.111E-14   TIME AVG. HEAT FLUX   1.000E-02
 LARGEST RESIDUAL HEAT FLUX        -4.869E-18   AT NODE       6954   DOF 11
   INSTANCE: NDBR6                                                                           
 LARGEST INCREMENT OF TEMP.         0.875       AT NODE     125919   DOF 11
   INSTANCE: NDBR6                                                                           
 LARGEST CORRECTION TO TEMP.       -0.346       AT NODE      16181   DOF 11
   INSTANCE: NDBR6                                                                           
          THERE IS ZERO HEAT FLUX EVERYWHERE
 

 ***WARNING: THERE IS ZERO HEAT FLUX EVERYWHERE IN THE MODEL BASED ON THE 
             DEFAULT CRITERION. PLEASE CHECK THE VALUE OF THE AVERAGE HEAT FLUX 
             DURING THE CURRENT ITERATION TO VERIFY THAT THE HEAT FLUX IS SMALL 
             ENOUGH TO BE TREATED AS ZERO. IF NOT, PLEASE USE THE SOLUTION 
             CONTROLS TO RESET THE CRITERION FOR ZERO HEAT FLUX.

 ITERATION SUMMARY FOR THE INCREMENT:   1 TOTAL ITERATIONS, OF WHICH
   0 ARE SEVERE DISCONTINUITY ITERATIONS AND  1 ARE EQUILIBRIUM ITERATIONS.

 TIME INCREMENT COMPLETED   360.    ,  FRACTION OF STEP COMPLETED   1.00    
 STEP TIME COMPLETED       1.800E+03,  TOTAL TIME COMPLETED        1.800E+03
1

   Abaqus 2023                                  Date 08-Dec-2024   Time 19:36:49
   For use by CSC_ IT CENTER FOR SCIENCE LTD under license from Dassault Systemes or its subsidiary.

                                                                                 
                                                                                 
 STEP    2     INCREMENT     1     STEP TIME    0.00    


                        S T E P       2     C O U P L E D - T E M P E R A T U R E - D I S P L A C E M E N T   A N A L Y S I S


                                                                                          

     AUTOMATIC TIME CONTROL WITH -
          A SUGGESTED INITIAL TIME INCREMENT OF                 5.55    
          AND A TOTAL TIME PERIOD OF                            555.    
          THE MINIMUM TIME INCREMENT ALLOWED IS                1.000E-07
          THE MAXIMUM TIME INCREMENT ALLOWED IS                 5.55    

          CREEP AND SWELLING EFFECTS ARE OMITTED IN THIS STEP

     THE SIZE OF THE TIME INCREMENT IS CONTROLLED BY -
          THE TEMPERATURE CHANGE PER INCREMENT NOT EXCEEDING           1.000E+03
          THE RATE DEPENDENCY WILL BE CONSIDERED IN THIS STEP

          CREEP AND SWELLING EFFECTS WILL BE IGNORED.

 CONVERGENCE TOLERANCE PARAMETERS FOR FORCE    
     CRITERION FOR RESIDUAL FORCE     FOR A NONLINEAR PROBLEM          5.000E-03
     CRITERION FOR DISP.    CORRECTION IN A NONLINEAR PROBLEM          1.000E-02
     INIT. VALUE OF TIME AVG. FORCE     IS TIME AVG. FORCE     IN PREVIOUS STEP
     AVERAGE FORCE     IS TIME AVERAGE FORCE    
     ALTERNATE CRIT. FOR RESIDUAL FORCE     FOR A NONLINEAR PROBLEM    2.000E-02
     CRITERION FOR ZERO FORCE     RELATIVE TO TIME AVRG. FORCE         1.000E-05
     CRITERION FOR RESIDUAL FORCE     WHEN THERE IS ZERO FLUX          1.000E-05
     CRITERION FOR DISP.    CORRECTION WHEN THERE IS ZERO FLUX         1.000E-03
     CRITERION FOR RESIDUAL FORCE     FOR A LINEAR INCREMENT           1.000E-08
     FIELD CONVERSION RATIO                                             1.00    
     CRITERION FOR ZERO FORCE     REL. TO TIME AVRG. MAX. FORCE        1.000E-05
     CRITERION FOR ZERO DISP.    RELATIVE TO CHARACTERISTIC LENGTH     1.000E-08

 CONVERGENCE TOLERANCE PARAMETERS FOR HEAT FLUX
     CRITERION FOR RESIDUAL HEAT FLUX FOR A NONLINEAR PROBLEM          5.000E-03
     CRITERION FOR TEMP.    CORRECTION IN A NONLINEAR PROBLEM          1.000E-02
     INIT. VALUE OF TIME AVG. HEAT FLUX IS TIME AVG. HEAT FLUX IN PREVIOUS STEP
     AVERAGE HEAT FLUX IS TIME AVERAGE HEAT FLUX
     ALTERNATE CRIT. FOR RESIDUAL HEAT FLUX FOR A NONLINEAR PROBLEM    2.000E-02
     CRITERION FOR ZERO HEAT FLUX RELATIVE TO TIME AVRG. HEAT FLUX     1.000E-05
     CRITERION FOR RESIDUAL HEAT FLUX WHEN THERE IS ZERO FLUX          1.000E-05
     CRITERION FOR TEMP.    CORRECTION WHEN THERE IS ZERO FLUX         1.000E-03
     CRITERION FOR RESIDUAL HEAT FLUX FOR A LINEAR INCREMENT           1.000E-08
     FIELD CONVERSION RATIO                                             1.00    
     CRITERION FOR ZERO HEAT FLUX REL. TO TIME AVRG. MAX. HEAT FLUX    1.000E-05

     VOLUMETRIC STRAIN COMPATIBILITY TOLERANCE FOR HYBRID SOLIDS       1.000E-05
     AXIAL STRAIN COMPATIBILITY TOLERANCE FOR HYBRID BEAMS             1.000E-05
     TRANS. SHEAR STRAIN COMPATIBILITY TOLERANCE FOR HYBRID BEAMS      1.000E-05
     SOFT CONTACT CONSTRAINT COMPATIBILITY TOLERANCE FOR P>P0          5.000E-03
     SOFT CONTACT CONSTRAINT COMPATIBILITY TOLERANCE FOR P=0.0         0.100    
     CONTACT FORCE ERROR TOLERANCE FOR CONVERT SDI=YES                 1.00    
     DISPLACEMENT COMPATIBILITY TOLERANCE FOR DCOUP ELEMENTS           1.000E-05
     ROTATION COMPATIBILITY TOLERANCE FOR DCOUP ELEMENTS               1.000E-05

 EQUILIBRIUM WILL BE CHECKED FOR SEVERE DISCONTINUITY ITERATIONS

 TIME INCREMENTATION CONTROL PARAMETERS:
     FIRST EQUILIBRIUM ITERATION FOR CONSECUTIVE DIVERGENCE CHECK              4
     EQUILIBRIUM ITERATION AT WHICH LOG. CONVERGENCE RATE CHECK BEGINS         8
     EQUILIBRIUM ITERATION AFTER WHICH ALTERNATE RESIDUAL IS USED              9
     MAXIMUM EQUILIBRIUM ITERATIONS ALLOWED                                   16
     EQUILIBRIUM ITERATION COUNT FOR CUT-BACK IN NEXT INCREMENT               10
     MAXIMUM EQUILIB. ITERS IN TWO INCREMENTS FOR TIME INCREMENT INCREASE      4
     MAXIMUM ITERATIONS FOR SEVERE DISCONTINUITIES                            50
     MAXIMUM ATTEMPTS ALLOWED IN AN INCREMENT                                  5
     MAXIMUM DISCON. ITERS IN TWO INCREMENTS FOR TIME INCREMENT INCREASE      50
     MAXIMUM CONTACT AUGMENTATIONS FOR *SURFACE BEHAVIOR,AUGMENTED LAGRANGE   50
     CONSECUTIVE INCS MEETING TIME INTEG. TOL. FOR TIME INC. INCREASE          3
     CUT-BACK FACTOR AFTER DIVERGENCE                                 0.2500    
     CUT-BACK FACTOR FOR TOO SLOW CONVERGENCE                         0.5000    
     CUT-BACK FACTOR AFTER TOO MANY EQUILIBRIUM ITERATIONS            0.7500    
     CUT-BACK FACTOR AFTER TOO MANY SEVERE DISCONTINUITY ITERATIONS   0.2500    
     CUT-BACK FACTOR AFTER PROBLEMS IN ELEMENT ASSEMBLY               0.2500    
     INCREASE FACTOR AFTER TWO INCREMENTS THAT CONVERGE QUICKLY        1.500    
     MAX. TIME INCREMENT INCREASE FACTOR ALLOWED                       1.500    
     MAX. TIME INCREMENT INCREASE FACTOR ALLOWED (DYNAMICS)            1.250    
     MAX. TIME INCREMENT INCREASE FACTOR ALLOWED (DIFFUSION)           2.000    
     MINIMUM TIME INCREMENT RATIO FOR EXTRAPOLATION TO OCCUR          0.1000    
     CUT-BACK FACTOR WHEN TIME INTEGRATION ACCURACY TOL. EXCEEDED     0.8500    
     MAX. RATIO OF TIME INTEG. MEASURE TO TOL. FOR TIME INC. INCREASE 0.7500    
     INCREASE FACTOR FOR TIME INCREMENT WHEN POSSIBLE                 0.8000    
     MIN. TIME INC. INCREASE FACTOR IN LINEAR TRANSIENT PROBLEMS      0.9500    
     MAX. RATIO OF TIME INCREMENT TO STABILITY LIMIT                   1.000    
     FRACTION OF STABILITY LIMIT FOR NEW TIME INCREMENT               0.9500    
     TIME INCREMENT INCREASE FACTOR BEFORE A TIME POINT                1.000    
     GLOBAL STABILIZATION CONTROL IS NOT USED

          PRINT OF INCREMENT NUMBER, TIME, ETC., EVERY    1  INCREMENTS

     THE MAXIMUM NUMBER OF INCREMENTS IN THIS STEP IS                 1000000

          LARGE DISPLACEMENT THEORY WILL BE USED

          UNSYMMETRIC MATRIX STORAGE AND SOLUTION WILL BE USED

     LINEAR EXTRAPOLATION WILL BE USED

     CHARACTERISTIC ELEMENT LENGTH     1.645E-04

     DETAILS REGARDING ACTUAL SOLUTION WAVEFRONT REQUESTED

     DETAILED OUTPUT OF DIAGNOSTICS TO DATABASE REQUESTED

     PRINT OF INCREMENT NUMBER, TIME, ETC., TO THE MESSAGE FILE EVERY     1  INCREMENTS

     ELEMENT OPERATIONS WILL BE CARRIED OUT IN PARALLEL USING   8 THREADS ON 1 DOMAIN

     COLLECTING STEP CONSTRAINT INFORMATION FOR OVERCONSTRAINT CHECKS


  INCREMENT     1 STARTS. ATTEMPT NUMBER  1, TIME INCREMENT   5.55    
 
     INITIAL ELEMENT LOAD BALANCE
            DOMAIN    1     THREAD    NUMBER OF ELEMENTS
                              1            15071
                              2            15200
                              3            15272
                              4            15176
                              5            15280
                              6            15264
                              7            15216
                              8            15216
 
	UNSYMMETRIC DIRECT SPARSE SOLVER RUNNING ON
 	1 HOST:        1 MPI RANK  x 8 THREADS
 	NUMBER OF EQUATIONS:     547412
 	NUMBER OF RHS:           1
 	NUMBER OF FLOPS:         4.003e+12

     CHECK POINT  START OF SOLVER     

     CHECK POINT  END OF SOLVER       

       ELAPSED USER TIME (SEC)      =   139.13    
       ELAPSED SYSTEM TIME (SEC)    =   5.7300    
       ELAPSED TOTAL CPU TIME (SEC) =   144.86    
       ELAPSED WALLCLOCK TIME (SEC) =           18

 ***WARNING: SOLVER PROBLEM.  ZERO PIVOT WHEN PROCESSING NODE 50982 INSTANCE 
             NDBR6 D.O.F. 11
  Typically a zero pivot is associated with an overconstraint in the model. 
 However, Abaqus was not able to identify any chains of constraints that might 
 lead to an overconstraint at this node. This suggests that the model might be 
 in fact insufficiently constrained in this particular degree of freedom. 
 Please check the constraints used in this model. 


 ***WARNING: SOLVER PROBLEM.  ZERO PIVOT WHEN PROCESSING NODE 49142 INSTANCE 
             NDBR6 D.O.F. 11
  Typically a zero pivot is associated with an overconstraint in the model. 
 However, Abaqus was not able to identify any chains of constraints that might 
 lead to an overconstraint at this node. This suggests that the model might be 
 in fact insufficiently constrained in this particular degree of freedom. 
 Please check the constraints used in this model. 


 ***WARNING: SOLVER PROBLEM.  ZERO PIVOT WHEN PROCESSING NODE 47302 INSTANCE 
             NDBR6 D.O.F. 11
  Typically a zero pivot is associated with an overconstraint in the model. 
 However, Abaqus was not able to identify any chains of constraints that might 
 lead to an overconstraint at this node. This suggests that the model might be 
 in fact insufficiently constrained in this particular degree of freedom. 
 Please check the constraints used in this model. 


 ***WARNING: SOLVER PROBLEM.  ZERO PIVOT WHEN PROCESSING NODE 47303 INSTANCE 
             NDBR6 D.O.F. 11
  Typically a zero pivot is associated with an overconstraint in the model. 
 However, Abaqus was not able to identify any chains of constraints that might 
 lead to an overconstraint at this node. This suggests that the model might be 
 in fact insufficiently constrained in this particular degree of freedom. 
 Please check the constraints used in this model. 


 ***WARNING: SOLVER PROBLEM.  ZERO PIVOT WHEN PROCESSING NODE 45463 INSTANCE 
             NDBR6 D.O.F. 11
  Typically a zero pivot is associated with an overconstraint in the model. 
 However, Abaqus was not able to identify any chains of constraints that might 
 lead to an overconstraint at this node. This suggests that the model might be 
 in fact insufficiently constrained in this particular degree of freedom. 
 Please check the constraints used in this model. 


 ***WARNING: SOLVER PROBLEM.  ZERO PIVOT WHEN PROCESSING NODE 45462 INSTANCE 
             NDBR6 D.O.F. 11
  Typically a zero pivot is associated with an overconstraint in the model. 
 However, Abaqus was not able to identify any chains of constraints that might 
 lead to an overconstraint at this node. This suggests that the model might be 
 in fact insufficiently constrained in this particular degree of freedom. 
 Please check the constraints used in this model. 


 ***WARNING: SOLVER PROBLEM.  ZERO PIVOT WHEN PROCESSING NODE 45692 INSTANCE 
             NDBR6 D.O.F. 11
  Typically a zero pivot is associated with an overconstraint in the model. 
 However, Abaqus was not able to identify any chains of constraints that might 
 lead to an overconstraint at this node. This suggests that the model might be 
 in fact insufficiently constrained in this particular degree of freedom. 
 Please check the constraints used in this model. 


 ***WARNING: SOLVER PROBLEM.  ZERO PIVOT WHEN PROCESSING NODE 45693 INSTANCE 
             NDBR6 D.O.F. 11
  Typically a zero pivot is associated with an overconstraint in the model. 
 However, Abaqus was not able to identify any chains of constraints that might 
 lead to an overconstraint at this node. This suggests that the model might be 
 in fact insufficiently constrained in this particular degree of freedom. 
 Please check the constraints used in this model. 


 ***WARNING: SOLVER PROBLEM.  ZERO PIVOT WHEN PROCESSING NODE 45577 INSTANCE 
             NDBR6 D.O.F. 11
  Typically a zero pivot is associated with an overconstraint in the model. 
 However, Abaqus was not able to identify any chains of constraints that might 
 lead to an overconstraint at this node. This suggests that the model might be 
 in fact insufficiently constrained in this particular degree of freedom. 
 Please check the constraints used in this model. 


 ***WARNING: SOLVER PROBLEM.  ZERO PIVOT WHEN PROCESSING NODE 45578 INSTANCE 
             NDBR6 D.O.F. 11
  Typically a zero pivot is associated with an overconstraint in the model. 
 However, Abaqus was not able to identify any chains of constraints that might 
 lead to an overconstraint at this node. This suggests that the model might be 
 in fact insufficiently constrained in this particular degree of freedom. 
 Please check the constraints used in this model. 


 ***WARNING: SOLVER PROBLEM.  ZERO PIVOT WHEN PROCESSING NODE 51212 INSTANCE 
             NDBR6 D.O.F. 11
  Typically a zero pivot is associated with an overconstraint in the model. 
 However, Abaqus was not able to identify any chains of constraints that might 
 lead to an overconstraint at this node. This suggests that the model might be 
 in fact insufficiently constrained in this particular degree of freedom. 
 Please check the constraints used in this model. 


 ***WARNING: SOLVER PROBLEM.  ZERO PIVOT WHEN PROCESSING NODE 49372 INSTANCE 
             NDBR6 D.O.F. 11
  Typically a zero pivot is associated with an overconstraint in the model. 
 However, Abaqus was not able to identify any chains of constraints that might 
 lead to an overconstraint at this node. This suggests that the model might be 
 in fact insufficiently constrained in this particular degree of freedom. 
 Please check the constraints used in this model. 


 ***WARNING: SOLVER PROBLEM.  ZERO PIVOT WHEN PROCESSING NODE 51213 INSTANCE 
             NDBR6 D.O.F. 11
  Typically a zero pivot is associated with an overconstraint in the model. 
 However, Abaqus was not able to identify any chains of constraints that might 
 lead to an overconstraint at this node. This suggests that the model might be 
 in fact insufficiently constrained in this particular degree of freedom. 
 Please check the constraints used in this model. 


 ***WARNING: SOLVER PROBLEM.  ZERO PIVOT WHEN PROCESSING NODE 49373 INSTANCE 
             NDBR6 D.O.F. 11
  Typically a zero pivot is associated with an overconstraint in the model. 
 However, Abaqus was not able to identify any chains of constraints that might 
 lead to an overconstraint at this node. This suggests that the model might be 
 in fact insufficiently constrained in this particular degree of freedom. 
 Please check the constraints used in this model. 


 ***WARNING: SOLVER PROBLEM.  ZERO PIVOT WHEN PROCESSING NODE 51442 INSTANCE 
             NDBR6 D.O.F. 11
  Typically a zero pivot is associated with an overconstraint in the model. 
 However, Abaqus was not able to identify any chains of constraints that might 
 lead to an overconstraint at this node. This suggests that the model might be 
 in fact insufficiently constrained in this particular degree of freedom. 
 Please check the constraints used in this model. 


 ***WARNING: SOLVER PROBLEM.  ZERO PIVOT WHEN PROCESSING NODE 49602 INSTANCE 
             NDBR6 D.O.F. 11
  Typically a zero pivot is associated with an overconstraint in the model. 
 However, Abaqus was not able to identify any chains of constraints that might 
 lead to an overconstraint at this node. This suggests that the model might be 
 in fact insufficiently constrained in this particular degree of freedom. 
 Please check the constraints used in this model. 


 ***WARNING: SOLVER PROBLEM.  ZERO PIVOT WHEN PROCESSING NODE 47762 INSTANCE 
             NDBR6 D.O.F. 11
  Typically a zero pivot is associated with an overconstraint in the model. 
 However, Abaqus was not able to identify any chains of constraints that might 
 lead to an overconstraint at this node. This suggests that the model might be 
 in fact insufficiently constrained in this particular degree of freedom. 
 Please check the constraints used in this model. 


 ***WARNING: SOLVER PROBLEM.  ZERO PIVOT WHEN PROCESSING NODE 47763 INSTANCE 
             NDBR6 D.O.F. 11
  Typically a zero pivot is associated with an overconstraint in the model. 
 However, Abaqus was not able to identify any chains of constraints that might 
 lead to an overconstraint at this node. This suggests that the model might be 
 in fact insufficiently constrained in this particular degree of freedom. 
 Please check the constraints used in this model. 


 ***WARNING: SOLVER PROBLEM.  ZERO PIVOT WHEN PROCESSING NODE 51445 INSTANCE 
             NDBR6 D.O.F. 11
  Typically a zero pivot is associated with an overconstraint in the model. 
 However, Abaqus was not able to identify any chains of constraints that might 
 lead to an overconstraint at this node. This suggests that the model might be 
 in fact insufficiently constrained in this particular degree of freedom. 
 Please check the constraints used in this model. 


 ***WARNING: SOLVER PROBLEM.  ZERO PIVOT WHEN PROCESSING NODE 51444 INSTANCE 
             NDBR6 D.O.F. 11
  Typically a zero pivot is associated with an overconstraint in the model. 
 However, Abaqus was not able to identify any chains of constraints that might 
 lead to an overconstraint at this node. This suggests that the model might be 
 in fact insufficiently constrained in this particular degree of freedom. 
 Please check the constraints used in this model. 


 ***WARNING: SOLVER PROBLEM.  ZERO PIVOT WHEN PROCESSING NODE 51443 INSTANCE 
             NDBR6 D.O.F. 11
  Typically a zero pivot is associated with an overconstraint in the model. 
 However, Abaqus was not able to identify any chains of constraints that might 
 lead to an overconstraint at this node. This suggests that the model might be 
 in fact insufficiently constrained in this particular degree of freedom. 
 Please check the constraints used in this model. 


 ***WARNING: SOLVER PROBLEM.  ZERO PIVOT WHEN PROCESSING NODE 49603 INSTANCE 
             NDBR6 D.O.F. 11
  Typically a zero pivot is associated with an overconstraint in the model. 
 However, Abaqus was not able to identify any chains of constraints that might 
 lead to an overconstraint at this node. This suggests that the model might be 
 in fact insufficiently constrained in this particular degree of freedom. 
 Please check the constraints used in this model. 


 ***WARNING: SOLVER PROBLEM.  ZERO PIVOT WHEN PROCESSING NODE 51328 INSTANCE 
             NDBR6 D.O.F. 11
  Typically a zero pivot is associated with an overconstraint in the model. 
 However, Abaqus was not able to identify any chains of constraints that might 
 lead to an overconstraint at this node. This suggests that the model might be 
 in fact insufficiently constrained in this particular degree of freedom. 
 Please check the constraints used in this model. 


 ***WARNING: SOLVER PROBLEM.  ZERO PIVOT WHEN PROCESSING NODE 49487 INSTANCE 
             NDBR6 D.O.F. 11
  Typically a zero pivot is associated with an overconstraint in the model. 
 However, Abaqus was not able to identify any chains of constraints that might 
 lead to an overconstraint at this node. This suggests that the model might be 
 in fact insufficiently constrained in this particular degree of freedom. 
 Please check the constraints used in this model. 


 ***WARNING: SOLVER PROBLEM.  ZERO PIVOT WHEN PROCESSING NODE 49488 INSTANCE 
             NDBR6 D.O.F. 11
  Typically a zero pivot is associated with an overconstraint in the model. 
 However, Abaqus was not able to identify any chains of constraints that might 
 lead to an overconstraint at this node. This suggests that the model might be 
 in fact insufficiently constrained in this particular degree of freedom. 
 Please check the constraints used in this model. 


 ***WARNING: SOLVER PROBLEM.  ZERO PIVOT WHEN PROCESSING NODE 51327 INSTANCE 
             NDBR6 D.O.F. 11
  Typically a zero pivot is associated with an overconstraint in the model. 
 However, Abaqus was not able to identify any chains of constraints that might 
 lead to an overconstraint at this node. This suggests that the model might be 
 in fact insufficiently constrained in this particular degree of freedom. 
 Please check the constraints used in this model. 


 ***WARNING: SOLVER PROBLEM.  ZERO PIVOT WHEN PROCESSING NODE 51097 INSTANCE 
             NDBR6 D.O.F. 11
  Typically a zero pivot is associated with an overconstraint in the model. 
 However, Abaqus was not able to identify any chains of constraints that might 
 lead to an overconstraint at this node. This suggests that the model might be 
 in fact insufficiently constrained in this particular degree of freedom. 
 Please check the constraints used in this model. 


 ***WARNING: SOLVER PROBLEM.  ZERO PIVOT WHEN PROCESSING NODE 45807 INSTANCE 
             NDBR6 D.O.F. 11
  Typically a zero pivot is associated with an overconstraint in the model. 
 However, Abaqus was not able to identify any chains of constraints that might 
 lead to an overconstraint at this node. This suggests that the model might be 
 in fact insufficiently constrained in this particular degree of freedom. 
 Please check the constraints used in this model. 


 ***WARNING: SOLVER PROBLEM.  ZERO PIVOT WHEN PROCESSING NODE 45922 INSTANCE 
             NDBR6 D.O.F. 11
  Typically a zero pivot is associated with an overconstraint in the model. 
 However, Abaqus was not able to identify any chains of constraints that might 
 lead to an overconstraint at this node. This suggests that the model might be 
 in fact insufficiently constrained in this particular degree of freedom. 
 Please check the constraints used in this model. 


 ***WARNING: SOLVER PROBLEM.  ZERO PIVOT WHEN PROCESSING NODE 47417 INSTANCE 
             NDBR6 D.O.F. 11
  Typically a zero pivot is associated with an overconstraint in the model. 
 However, Abaqus was not able to identify any chains of constraints that might 
 lead to an overconstraint at this node. This suggests that the model might be 
 in fact insufficiently constrained in this particular degree of freedom. 
 Please check the constraints used in this model. 


 ***WARNING: SOLVER PROBLEM.  ZERO PIVOT WHEN PROCESSING NODE 47418 INSTANCE 
             NDBR6 D.O.F. 11
  Typically a zero pivot is associated with an overconstraint in the model. 
 However, Abaqus was not able to identify any chains of constraints that might 
 lead to an overconstraint at this node. This suggests that the model might be 
 in fact insufficiently constrained in this particular degree of freedom. 
 Please check the constraints used in this model. 


 ***WARNING: SOLVER PROBLEM.  ZERO PIVOT WHEN PROCESSING NODE 47532 INSTANCE 
             NDBR6 D.O.F. 11
  Typically a zero pivot is associated with an overconstraint in the model. 
 However, Abaqus was not able to identify any chains of constraints that might 
 lead to an overconstraint at this node. This suggests that the model might be 
 in fact insufficiently constrained in this particular degree of freedom. 
 Please check the constraints used in this model. 


 ***WARNING: SOLVER PROBLEM.  ZERO PIVOT WHEN PROCESSING NODE 47533 INSTANCE 
             NDBR6 D.O.F. 11
  Typically a zero pivot is associated with an overconstraint in the model. 
 However, Abaqus was not able to identify any chains of constraints that might 
 lead to an overconstraint at this node. This suggests that the model might be 
 in fact insufficiently constrained in this particular degree of freedom. 
 Please check the constraints used in this model. 


 ***WARNING: SOLVER PROBLEM.  ZERO PIVOT WHEN PROCESSING NODE 47647 INSTANCE 
             NDBR6 D.O.F. 11
  Typically a zero pivot is associated with an overconstraint in the model. 
 However, Abaqus was not able to identify any chains of constraints that might 
 lead to an overconstraint at this node. This suggests that the model might be 
 in fact insufficiently constrained in this particular degree of freedom. 
 Please check the constraints used in this model. 


 ***WARNING: SOLVER PROBLEM.  ZERO PIVOT WHEN PROCESSING NODE 47648 INSTANCE 
             NDBR6 D.O.F. 11
  Typically a zero pivot is associated with an overconstraint in the model. 
 However, Abaqus was not able to identify any chains of constraints that might 
 lead to an overconstraint at this node. This suggests that the model might be 
 in fact insufficiently constrained in this particular degree of freedom. 
 Please check the constraints used in this model. 


 ***WARNING: SOLVER PROBLEM.  ZERO PIVOT WHEN PROCESSING NODE 49257 INSTANCE 
             NDBR6 D.O.F. 11
  Typically a zero pivot is associated with an overconstraint in the model. 
 However, Abaqus was not able to identify any chains of constraints that might 
 lead to an overconstraint at this node. This suggests that the model might be 
 in fact insufficiently constrained in this particular degree of freedom. 
 Please check the constraints used in this model. 


 ***WARNING: SOLVER PROBLEM.  ZERO PIVOT WHEN PROCESSING NODE 51449 INSTANCE 
             NDBR6 D.O.F. 11
  Typically a zero pivot is associated with an overconstraint in the model. 
 However, Abaqus was not able to identify any chains of constraints that might 
 lead to an overconstraint at this node. This suggests that the model might be 
 in fact insufficiently constrained in this particular degree of freedom. 
 Please check the constraints used in this model. 


 ***WARNING: SOLVER PROBLEM.  ZERO PIVOT WHEN PROCESSING NODE 49609 INSTANCE 
             NDBR6 D.O.F. 11
  Typically a zero pivot is associated with an overconstraint in the model. 
 However, Abaqus was not able to identify any chains of constraints that might 
 lead to an overconstraint at this node. This suggests that the model might be 
 in fact insufficiently constrained in this particular degree of freedom. 
 Please check the constraints used in this model. 


 ***WARNING: SOLVER PROBLEM.  ZERO PIVOT WHEN PROCESSING NODE 47769 INSTANCE 
             NDBR6 D.O.F. 11
  Typically a zero pivot is associated with an overconstraint in the model. 
 However, Abaqus was not able to identify any chains of constraints that might 
 lead to an overconstraint at this node. This suggests that the model might be 
 in fact insufficiently constrained in this particular degree of freedom. 
 Please check the constraints used in this model. 


 ***WARNING: SOLVER PROBLEM.  ZERO PIVOT WHEN PROCESSING NODE 51219 INSTANCE 
             NDBR6 D.O.F. 11
  Typically a zero pivot is associated with an overconstraint in the model. 
 However, Abaqus was not able to identify any chains of constraints that might 
 lead to an overconstraint at this node. This suggests that the model might be 
 in fact insufficiently constrained in this particular degree of freedom. 
 Please check the constraints used in this model. 


 ***WARNING: SOLVER PROBLEM.  ZERO PIVOT WHEN PROCESSING NODE 49379 INSTANCE 
             NDBR6 D.O.F. 11
  Typically a zero pivot is associated with an overconstraint in the model. 
 However, Abaqus was not able to identify any chains of constraints that might 
 lead to an overconstraint at this node. This suggests that the model might be 
 in fact insufficiently constrained in this particular degree of freedom. 
 Please check the constraints used in this model. 


 ***WARNING: SOLVER PROBLEM.  ZERO PIVOT WHEN PROCESSING NODE 51334 INSTANCE 
             NDBR6 D.O.F. 11
  Typically a zero pivot is associated with an overconstraint in the model. 
 However, Abaqus was not able to identify any chains of constraints that might 
 lead to an overconstraint at this node. This suggests that the model might be 
 in fact insufficiently constrained in this particular degree of freedom. 
 Please check the constraints used in this model. 


 ***WARNING: SOLVER PROBLEM.  ZERO PIVOT WHEN PROCESSING NODE 49494 INSTANCE 
             NDBR6 D.O.F. 11
  Typically a zero pivot is associated with an overconstraint in the model. 
 However, Abaqus was not able to identify any chains of constraints that might 
 lead to an overconstraint at this node. This suggests that the model might be 
 in fact insufficiently constrained in this particular degree of freedom. 
 Please check the constraints used in this model. 


 ***WARNING: SOLVER PROBLEM.  ZERO PIVOT WHEN PROCESSING NODE 45699 INSTANCE 
             NDBR6 D.O.F. 11
  Typically a zero pivot is associated with an overconstraint in the model. 
 However, Abaqus was not able to identify any chains of constraints that might 
 lead to an overconstraint at this node. This suggests that the model might be 
 in fact insufficiently constrained in this particular degree of freedom. 
 Please check the constraints used in this model. 


 ***WARNING: SOLVER PROBLEM.  ZERO PIVOT WHEN PROCESSING NODE 45929 INSTANCE 
             NDBR6 D.O.F. 11
  Typically a zero pivot is associated with an overconstraint in the model. 
 However, Abaqus was not able to identify any chains of constraints that might 
 lead to an overconstraint at this node. This suggests that the model might be 
 in fact insufficiently constrained in this particular degree of freedom. 
 Please check the constraints used in this model. 


 ***WARNING: SOLVER PROBLEM.  ZERO PIVOT WHEN PROCESSING NODE 45814 INSTANCE 
             NDBR6 D.O.F. 11
  Typically a zero pivot is associated with an overconstraint in the model. 
 However, Abaqus was not able to identify any chains of constraints that might 
 lead to an overconstraint at this node. This suggests that the model might be 
 in fact insufficiently constrained in this particular degree of freedom. 
 Please check the constraints used in this model. 


 ***WARNING: SOLVER PROBLEM.  ZERO PIVOT WHEN PROCESSING NODE 47539 INSTANCE 
             NDBR6 D.O.F. 11
  Typically a zero pivot is associated with an overconstraint in the model. 
 However, Abaqus was not able to identify any chains of constraints that might 
 lead to an overconstraint at this node. This suggests that the model might be 
 in fact insufficiently constrained in this particular degree of freedom. 
 Please check the constraints used in this model. 


 ***WARNING: SOLVER PROBLEM.  ZERO PIVOT WHEN PROCESSING NODE 47654 INSTANCE 
             NDBR6 D.O.F. 11
  Typically a zero pivot is associated with an overconstraint in the model. 
 However, Abaqus was not able to identify any chains of constraints that might 
 lead to an overconstraint at this node. This suggests that the model might be 
 in fact insufficiently constrained in this particular degree of freedom. 
 Please check the constraints used in this model. 


 ***WARNING: SOLVER PROBLEM.  ZERO PIVOT WHEN PROCESSING NODE 51447 INSTANCE 
             NDBR6 D.O.F. 11
  Typically a zero pivot is associated with an overconstraint in the model. 
 However, Abaqus was not able to identify any chains of constraints that might 
 lead to an overconstraint at this node. This suggests that the model might be 
 in fact insufficiently constrained in this particular degree of freedom. 
 Please check the constraints used in this model. 


 ***WARNING: Solver problem. Zero pivot when processing D.O.F. 11 of 49 nodes. 
             The nodes have been identified in node set 
             WarnNodeSolvProbZeroPiv_11_2_1_1_1.

               CONVERGENCE CHECKS FOR EQUILIBRIUM ITERATION     1


 AVERAGE FORCE                      2.486E-02   TIME AVG. FORCE       2.486E-02
 LARGEST RESIDUAL FORCE             6.582E-04   AT NODE       3634   DOF  3
   INSTANCE: NDBR6                                                                           
 LARGEST INCREMENT OF DISP.         1.388E-05   AT NODE         29   DOF  2
   INSTANCE: NDBR6                                                                           
 LARGEST CORRECTION TO DISP.        1.388E-05   AT NODE         29   DOF  2
   INSTANCE: NDBR6                                                                           
          FORCE     EQUILIBRIUM NOT ACHIEVED WITHIN TOLERANCE.

 AVERAGE HEAT FLUX                  2.100E-14   TIME AVG. HEAT FLUX   1.000E-02
 LARGEST RESIDUAL HEAT FLUX         3.822E-17   AT NODE       7190   DOF 11
   INSTANCE: NDBR6                                                                           
 LARGEST INCREMENT OF TEMP.         1.343E-02   AT NODE     125919   DOF 11
   INSTANCE: NDBR6                                                                           
 LARGEST CORRECTION TO TEMP.        1.343E-02   AT NODE     125919   DOF 11
   INSTANCE: NDBR6                                                                           
          THERE IS ZERO HEAT FLUX EVERYWHERE
 

 ***WARNING: THERE IS ZERO HEAT FLUX EVERYWHERE IN THE MODEL BASED ON THE 
             DEFAULT CRITERION. PLEASE CHECK THE VALUE OF THE AVERAGE HEAT FLUX 
             DURING THE CURRENT ITERATION TO VERIFY THAT THE HEAT FLUX IS SMALL 
             ENOUGH TO BE TREATED AS ZERO. IF NOT, PLEASE USE THE SOLUTION 
             CONTROLS TO RESET THE CRITERION FOR ZERO HEAT FLUX.
 
	UNSYMMETRIC DIRECT SPARSE SOLVER RUNNING ON
 	1 HOST:        1 MPI RANK  x 8 THREADS
 	NUMBER OF EQUATIONS:     547412
 	NUMBER OF RHS:           1
 	NUMBER OF FLOPS:         4.003e+12

     CHECK POINT  START OF SOLVER     

     CHECK POINT  END OF SOLVER       

       ELAPSED USER TIME (SEC)      =   139.70    
       ELAPSED SYSTEM TIME (SEC)    =  0.58000    
       ELAPSED TOTAL CPU TIME (SEC) =   140.28    
       ELAPSED WALLCLOCK TIME (SEC) =           18

               CONVERGENCE CHECKS FOR EQUILIBRIUM ITERATION     2


 AVERAGE FORCE                      2.486E-02   TIME AVG. FORCE       2.486E-02
 LARGEST RESIDUAL FORCE            -7.093E-09   AT NODE        676   DOF  2
   INSTANCE: NDBR6                                                                           
 LARGEST INCREMENT OF DISP.         1.388E-05   AT NODE         29   DOF  2
   INSTANCE: NDBR6                                                                           
 LARGEST CORRECTION TO DISP.        5.887E-11   AT NODE        604   DOF  2
   INSTANCE: NDBR6                                                                           
          THE FORCE     EQUILIBRIUM EQUATIONS HAVE CONVERGED

 AVERAGE HEAT FLUX                  2.100E-14   TIME AVG. HEAT FLUX   1.000E-02
 LARGEST RESIDUAL HEAT FLUX        -1.222E-21   AT NODE      12726   DOF 11
   INSTANCE: NDBR6                                                                           
 LARGEST INCREMENT OF TEMP.         1.343E-02   AT NODE     125919   DOF 11
   INSTANCE: NDBR6                                                                           
 LARGEST CORRECTION TO TEMP.        1.636E-06   AT NODE      22374   DOF 11
   INSTANCE: NDBR6                                                                           
          THERE IS ZERO HEAT FLUX EVERYWHERE
 

 ***WARNING: THERE IS ZERO HEAT FLUX EVERYWHERE IN THE MODEL BASED ON THE 
             DEFAULT CRITERION. PLEASE CHECK THE VALUE OF THE AVERAGE HEAT FLUX 
             DURING THE CURRENT ITERATION TO VERIFY THAT THE HEAT FLUX IS SMALL 
             ENOUGH TO BE TREATED AS ZERO. IF NOT, PLEASE USE THE SOLUTION 
             CONTROLS TO RESET THE CRITERION FOR ZERO HEAT FLUX.

 MAXIMUM NON-PRESCRIBED INCREMENT IN TEMPERATURE IS   1.343E-02

 ITERATION SUMMARY FOR THE INCREMENT:   2 TOTAL ITERATIONS, OF WHICH
   0 ARE SEVERE DISCONTINUITY ITERATIONS AND  2 ARE EQUILIBRIUM ITERATIONS.

 TIME INCREMENT COMPLETED   5.55    ,  FRACTION OF STEP COMPLETED  1.000E-02
 STEP TIME COMPLETED        5.55    ,  TOTAL TIME COMPLETED        1.806E+03


  INCREMENT     2 STARTS. ATTEMPT NUMBER  1, TIME INCREMENT   5.55    
 
	UNSYMMETRIC DIRECT SPARSE SOLVER RUNNING ON
 	1 HOST:        1 MPI RANK  x 8 THREADS
 	NUMBER OF EQUATIONS:     547412
 	NUMBER OF RHS:           1
 	NUMBER OF FLOPS:         4.003e+12

     CHECK POINT  START OF SOLVER     

     CHECK POINT  END OF SOLVER       

       ELAPSED USER TIME (SEC)      =   138.49    
       ELAPSED SYSTEM TIME (SEC)    =  0.49000    
       ELAPSED TOTAL CPU TIME (SEC) =   138.98    
       ELAPSED WALLCLOCK TIME (SEC) =           18

               CONVERGENCE CHECKS FOR EQUILIBRIUM ITERATION     1


 AVERAGE FORCE                      5.725E-02   TIME AVG. FORCE       4.105E-02
 LARGEST RESIDUAL FORCE            -1.116E-08   AT NODE        676   DOF  2
   INSTANCE: NDBR6                                                                           
 LARGEST INCREMENT OF DISP.         1.388E-05   AT NODE         29   DOF  2
   INSTANCE: NDBR6                                                                           
 LARGEST CORRECTION TO DISP.        1.119E-10   AT NODE        604   DOF  2
   INSTANCE: NDBR6                                                                           
          THE FORCE     EQUILIBRIUM EQUATIONS HAVE CONVERGED

 AVERAGE HEAT FLUX                  2.089E-14   TIME AVG. HEAT FLUX   1.000E-02
 LARGEST RESIDUAL HEAT FLUX        -3.399E-21   AT NODE      12726   DOF 11
   INSTANCE: NDBR6                                                                           
 LARGEST INCREMENT OF TEMP.         1.336E-02   AT NODE     125919   DOF 11
   INSTANCE: NDBR6                                                                           
 LARGEST CORRECTION TO TEMP.       -1.605E-04   AT NODE      14932   DOF 11
   INSTANCE: NDBR6                                                                           
          THERE IS ZERO HEAT FLUX EVERYWHERE
 

 ***WARNING: THERE IS ZERO HEAT FLUX EVERYWHERE IN THE MODEL BASED ON THE 
             DEFAULT CRITERION. PLEASE CHECK THE VALUE OF THE AVERAGE HEAT FLUX 
             DURING THE CURRENT ITERATION TO VERIFY THAT THE HEAT FLUX IS SMALL 
             ENOUGH TO BE TREATED AS ZERO. IF NOT, PLEASE USE THE SOLUTION 
             CONTROLS TO RESET THE CRITERION FOR ZERO HEAT FLUX.

 MAXIMUM NON-PRESCRIBED INCREMENT IN TEMPERATURE IS   1.336E-02

 ITERATION SUMMARY FOR THE INCREMENT:   1 TOTAL ITERATIONS, OF WHICH
   0 ARE SEVERE DISCONTINUITY ITERATIONS AND  1 ARE EQUILIBRIUM ITERATIONS.

 TIME INCREMENT COMPLETED   5.55    ,  FRACTION OF STEP COMPLETED  2.000E-02
 STEP TIME COMPLETED        11.1    ,  TOTAL TIME COMPLETED        1.811E+03


  INCREMENT     3 STARTS. ATTEMPT NUMBER  1, TIME INCREMENT   5.55    
 
	UNSYMMETRIC DIRECT SPARSE SOLVER RUNNING ON
 	1 HOST:        1 MPI RANK  x 8 THREADS
 	NUMBER OF EQUATIONS:     547412
 	NUMBER OF RHS:           1
 	NUMBER OF FLOPS:         4.003e+12

     CHECK POINT  START OF SOLVER     

     CHECK POINT  END OF SOLVER       

       ELAPSED USER TIME (SEC)      =   140.29    
       ELAPSED SYSTEM TIME (SEC)    =  0.49000    
       ELAPSED TOTAL CPU TIME (SEC) =   140.78    
       ELAPSED WALLCLOCK TIME (SEC) =           18

               CONVERGENCE CHECKS FOR EQUILIBRIUM ITERATION     1


 AVERAGE FORCE                      8.587E-02   TIME AVG. FORCE       5.599E-02
 LARGEST RESIDUAL FORCE            -1.550E-08   AT NODE        676   DOF  2
   INSTANCE: NDBR6                                                                           
 LARGEST INCREMENT OF DISP.         1.388E-05   AT NODE         29   DOF  2
   INSTANCE: NDBR6                                                                           
 LARGEST CORRECTION TO DISP.        1.119E-10   AT NODE        604   DOF  2
   INSTANCE: NDBR6                                                                           
          THE FORCE     EQUILIBRIUM EQUATIONS HAVE CONVERGED

 AVERAGE HEAT FLUX                  2.078E-14   TIME AVG. HEAT FLUX   1.000E-02
 LARGEST RESIDUAL HEAT FLUX        -3.382E-21   AT NODE      12726   DOF 11
   INSTANCE: NDBR6                                                                           
 LARGEST INCREMENT OF TEMP.         1.330E-02   AT NODE     125919   DOF 11
   INSTANCE: NDBR6                                                                           
 LARGEST CORRECTION TO TEMP.       -1.132E-04   AT NODE       6347   DOF 11
   INSTANCE: NDBR6                                                                           
          THERE IS ZERO HEAT FLUX EVERYWHERE
 

 ***WARNING: THERE IS ZERO HEAT FLUX EVERYWHERE IN THE MODEL BASED ON THE 
             DEFAULT CRITERION. PLEASE CHECK THE VALUE OF THE AVERAGE HEAT FLUX 
             DURING THE CURRENT ITERATION TO VERIFY THAT THE HEAT FLUX IS SMALL 
             ENOUGH TO BE TREATED AS ZERO. IF NOT, PLEASE USE THE SOLUTION 
             CONTROLS TO RESET THE CRITERION FOR ZERO HEAT FLUX.

 MAXIMUM NON-PRESCRIBED INCREMENT IN TEMPERATURE IS   1.330E-02

 ITERATION SUMMARY FOR THE INCREMENT:   1 TOTAL ITERATIONS, OF WHICH
   0 ARE SEVERE DISCONTINUITY ITERATIONS AND  1 ARE EQUILIBRIUM ITERATIONS.

 TIME INCREMENT COMPLETED   5.55    ,  FRACTION OF STEP COMPLETED  3.000E-02
 STEP TIME COMPLETED        16.6    ,  TOTAL TIME COMPLETED        1.817E+03


  INCREMENT     4 STARTS. ATTEMPT NUMBER  1, TIME INCREMENT   5.55    
 
	UNSYMMETRIC DIRECT SPARSE SOLVER RUNNING ON
 	1 HOST:        1 MPI RANK  x 8 THREADS
 	NUMBER OF EQUATIONS:     547412
 	NUMBER OF RHS:           1
 	NUMBER OF FLOPS:         4.003e+12

     CHECK POINT  START OF SOLVER     

     CHECK POINT  END OF SOLVER       

       ELAPSED USER TIME (SEC)      =   142.30    
       ELAPSED SYSTEM TIME (SEC)    =  0.46000    
       ELAPSED TOTAL CPU TIME (SEC) =   142.76    
       ELAPSED WALLCLOCK TIME (SEC) =           18

               CONVERGENCE CHECKS FOR EQUILIBRIUM ITERATION     1


 AVERAGE FORCE                      0.114       TIME AVG. FORCE       7.062E-02
 LARGEST RESIDUAL FORCE            -1.984E-08   AT NODE        676   DOF  2
   INSTANCE: NDBR6                                                                           
 LARGEST INCREMENT OF DISP.         1.388E-05   AT NODE         29   DOF  2
   INSTANCE: NDBR6                                                                           
 LARGEST CORRECTION TO DISP.        1.119E-10   AT NODE        604   DOF  2
   INSTANCE: NDBR6                                                                           
          THE FORCE     EQUILIBRIUM EQUATIONS HAVE CONVERGED

 AVERAGE HEAT FLUX                  2.068E-14   TIME AVG. HEAT FLUX   1.000E-02
 LARGEST RESIDUAL HEAT FLUX        -3.364E-21   AT NODE      12726   DOF 11
   INSTANCE: NDBR6                                                                           
 LARGEST INCREMENT OF TEMP.         1.323E-02   AT NODE     125919   DOF 11
   INSTANCE: NDBR6                                                                           
 LARGEST CORRECTION TO TEMP.       -1.041E-04   AT NODE      16323   DOF 11
   INSTANCE: NDBR6                                                                           
          THERE IS ZERO HEAT FLUX EVERYWHERE
 

 ***WARNING: THERE IS ZERO HEAT FLUX EVERYWHERE IN THE MODEL BASED ON THE 
             DEFAULT CRITERION. PLEASE CHECK THE VALUE OF THE AVERAGE HEAT FLUX 
             DURING THE CURRENT ITERATION TO VERIFY THAT THE HEAT FLUX IS SMALL 
             ENOUGH TO BE TREATED AS ZERO. IF NOT, PLEASE USE THE SOLUTION 
             CONTROLS TO RESET THE CRITERION FOR ZERO HEAT FLUX.

 MAXIMUM NON-PRESCRIBED INCREMENT IN TEMPERATURE IS   1.323E-02

 ITERATION SUMMARY FOR THE INCREMENT:   1 TOTAL ITERATIONS, OF WHICH
   0 ARE SEVERE DISCONTINUITY ITERATIONS AND  1 ARE EQUILIBRIUM ITERATIONS.

 TIME INCREMENT COMPLETED   5.55    ,  FRACTION OF STEP COMPLETED  4.000E-02
 STEP TIME COMPLETED        22.2    ,  TOTAL TIME COMPLETED        1.822E+03


  INCREMENT     5 STARTS. ATTEMPT NUMBER  1, TIME INCREMENT   5.55    
 
	UNSYMMETRIC DIRECT SPARSE SOLVER RUNNING ON
 	1 HOST:        1 MPI RANK  x 8 THREADS
 	NUMBER OF EQUATIONS:     547412
 	NUMBER OF RHS:           1
 	NUMBER OF FLOPS:         4.003e+12

     CHECK POINT  START OF SOLVER     

     CHECK POINT  END OF SOLVER       

       ELAPSED USER TIME (SEC)      =   142.89    
       ELAPSED SYSTEM TIME (SEC)    =  0.47000    
       ELAPSED TOTAL CPU TIME (SEC) =   143.36    
       ELAPSED WALLCLOCK TIME (SEC) =           18

               CONVERGENCE CHECKS FOR EQUILIBRIUM ITERATION     1


 AVERAGE FORCE                      0.143       TIME AVG. FORCE       8.512E-02
 LARGEST RESIDUAL FORCE            -2.582E-08   AT NODE       4788   DOF  2
   INSTANCE: NDBR6                                                                           
 LARGEST INCREMENT OF DISP.         1.388E-05   AT NODE         29   DOF  2
   INSTANCE: NDBR6                                                                           
 LARGEST CORRECTION TO DISP.        1.119E-10   AT NODE        604   DOF  2
   INSTANCE: NDBR6                                                                           
          THE FORCE     EQUILIBRIUM EQUATIONS HAVE CONVERGED

 AVERAGE HEAT FLUX                  2.057E-14   TIME AVG. HEAT FLUX   1.000E-02
 LARGEST RESIDUAL HEAT FLUX        -3.347E-21   AT NODE      12726   DOF 11
   INSTANCE: NDBR6                                                                           
 LARGEST INCREMENT OF TEMP.         1.317E-02   AT NODE     125919   DOF 11
   INSTANCE: NDBR6                                                                           
 LARGEST CORRECTION TO TEMP.       -9.622E-05   AT NODE      16323   DOF 11
   INSTANCE: NDBR6                                                                           
          THERE IS ZERO HEAT FLUX EVERYWHERE
 

 ***WARNING: THERE IS ZERO HEAT FLUX EVERYWHERE IN THE MODEL BASED ON THE 
             DEFAULT CRITERION. PLEASE CHECK THE VALUE OF THE AVERAGE HEAT FLUX 
             DURING THE CURRENT ITERATION TO VERIFY THAT THE HEAT FLUX IS SMALL 
             ENOUGH TO BE TREATED AS ZERO. IF NOT, PLEASE USE THE SOLUTION 
             CONTROLS TO RESET THE CRITERION FOR ZERO HEAT FLUX.

 MAXIMUM NON-PRESCRIBED INCREMENT IN TEMPERATURE IS   1.317E-02

 ITERATION SUMMARY FOR THE INCREMENT:   1 TOTAL ITERATIONS, OF WHICH
   0 ARE SEVERE DISCONTINUITY ITERATIONS AND  1 ARE EQUILIBRIUM ITERATIONS.

 TIME INCREMENT COMPLETED   5.55    ,  FRACTION OF STEP COMPLETED  5.000E-02
 STEP TIME COMPLETED        27.8    ,  TOTAL TIME COMPLETED        1.828E+03


  INCREMENT     6 STARTS. ATTEMPT NUMBER  1, TIME INCREMENT   5.55    
 
	UNSYMMETRIC DIRECT SPARSE SOLVER RUNNING ON
 	1 HOST:        1 MPI RANK  x 8 THREADS
 	NUMBER OF EQUATIONS:     547412
 	NUMBER OF RHS:           1
 	NUMBER OF FLOPS:         4.003e+12

     CHECK POINT  START OF SOLVER     

     CHECK POINT  END OF SOLVER       

       ELAPSED USER TIME (SEC)      =   142.07    
       ELAPSED SYSTEM TIME (SEC)    =  0.42000    
       ELAPSED TOTAL CPU TIME (SEC) =   142.49    
       ELAPSED WALLCLOCK TIME (SEC) =           18

               CONVERGENCE CHECKS FOR EQUILIBRIUM ITERATION     1


 AVERAGE FORCE                      0.172       TIME AVG. FORCE       0.100    
 LARGEST RESIDUAL FORCE            -3.182E-08   AT NODE       4788   DOF  2
   INSTANCE: NDBR6                                                                           
 LARGEST INCREMENT OF DISP.         1.388E-05   AT NODE         29   DOF  2
   INSTANCE: NDBR6                                                                           
 LARGEST CORRECTION TO DISP.        1.119E-10   AT NODE        604   DOF  2
   INSTANCE: NDBR6                                                                           
          THE FORCE     EQUILIBRIUM EQUATIONS HAVE CONVERGED

 AVERAGE HEAT FLUX                  2.047E-14   TIME AVG. HEAT FLUX   1.000E-02
 LARGEST RESIDUAL HEAT FLUX        -3.329E-21   AT NODE      12726   DOF 11
   INSTANCE: NDBR6                                                                           
 LARGEST INCREMENT OF TEMP.         1.310E-02   AT NODE     125919   DOF 11
   INSTANCE: NDBR6                                                                           
 LARGEST CORRECTION TO TEMP.       -8.996E-05   AT NODE     109404   DOF 11
   INSTANCE: NDBR6                                                                           
          THERE IS ZERO HEAT FLUX EVERYWHERE
 

 ***WARNING: THERE IS ZERO HEAT FLUX EVERYWHERE IN THE MODEL BASED ON THE 
             DEFAULT CRITERION. PLEASE CHECK THE VALUE OF THE AVERAGE HEAT FLUX 
             DURING THE CURRENT ITERATION TO VERIFY THAT THE HEAT FLUX IS SMALL 
             ENOUGH TO BE TREATED AS ZERO. IF NOT, PLEASE USE THE SOLUTION 
             CONTROLS TO RESET THE CRITERION FOR ZERO HEAT FLUX.

 MAXIMUM NON-PRESCRIBED INCREMENT IN TEMPERATURE IS   1.310E-02

 ITERATION SUMMARY FOR THE INCREMENT:   1 TOTAL ITERATIONS, OF WHICH
   0 ARE SEVERE DISCONTINUITY ITERATIONS AND  1 ARE EQUILIBRIUM ITERATIONS.

 TIME INCREMENT COMPLETED   5.55    ,  FRACTION OF STEP COMPLETED  6.000E-02
 STEP TIME COMPLETED        33.3    ,  TOTAL TIME COMPLETED        1.833E+03


  INCREMENT     7 STARTS. ATTEMPT NUMBER  1, TIME INCREMENT   5.55    
 
	UNSYMMETRIC DIRECT SPARSE SOLVER RUNNING ON
 	1 HOST:        1 MPI RANK  x 8 THREADS
 	NUMBER OF EQUATIONS:     547412
 	NUMBER OF RHS:           1
 	NUMBER OF FLOPS:         4.003e+12

     CHECK POINT  START OF SOLVER     

     CHECK POINT  END OF SOLVER       

       ELAPSED USER TIME (SEC)      =   139.23    
       ELAPSED SYSTEM TIME (SEC)    =  0.44000    
       ELAPSED TOTAL CPU TIME (SEC) =   139.67    
       ELAPSED WALLCLOCK TIME (SEC) =           18

               CONVERGENCE CHECKS FOR EQUILIBRIUM ITERATION     1


 AVERAGE FORCE                      0.200       TIME AVG. FORCE       0.114    
 LARGEST RESIDUAL FORCE            -3.780E-08   AT NODE       4788   DOF  2
   INSTANCE: NDBR6                                                                           
 LARGEST INCREMENT OF DISP.         1.388E-05   AT NODE         29   DOF  2
   INSTANCE: NDBR6                                                                           
 LARGEST CORRECTION TO DISP.        1.119E-10   AT NODE        604   DOF  2
   INSTANCE: NDBR6                                                                           
          THE FORCE     EQUILIBRIUM EQUATIONS HAVE CONVERGED

 AVERAGE HEAT FLUX                  2.036E-14   TIME AVG. HEAT FLUX   1.000E-02
 LARGEST RESIDUAL HEAT FLUX        -3.311E-21   AT NODE      12726   DOF 11
   INSTANCE: NDBR6                                                                           
 LARGEST INCREMENT OF TEMP.         1.304E-02   AT NODE     125919   DOF 11
   INSTANCE: NDBR6                                                                           
 LARGEST CORRECTION TO TEMP.       -8.880E-05   AT NODE     109404   DOF 11
   INSTANCE: NDBR6                                                                           
          THERE IS ZERO HEAT FLUX EVERYWHERE
 

 ***WARNING: THERE IS ZERO HEAT FLUX EVERYWHERE IN THE MODEL BASED ON THE 
             DEFAULT CRITERION. PLEASE CHECK THE VALUE OF THE AVERAGE HEAT FLUX 
             DURING THE CURRENT ITERATION TO VERIFY THAT THE HEAT FLUX IS SMALL 
             ENOUGH TO BE TREATED AS ZERO. IF NOT, PLEASE USE THE SOLUTION 
             CONTROLS TO RESET THE CRITERION FOR ZERO HEAT FLUX.

 MAXIMUM NON-PRESCRIBED INCREMENT IN TEMPERATURE IS   1.304E-02

 ITERATION SUMMARY FOR THE INCREMENT:   1 TOTAL ITERATIONS, OF WHICH
   0 ARE SEVERE DISCONTINUITY ITERATIONS AND  1 ARE EQUILIBRIUM ITERATIONS.

 TIME INCREMENT COMPLETED   5.55    ,  FRACTION OF STEP COMPLETED  7.000E-02
 STEP TIME COMPLETED        38.8    ,  TOTAL TIME COMPLETED        1.839E+03


  INCREMENT     8 STARTS. ATTEMPT NUMBER  1, TIME INCREMENT   5.55    
 
	UNSYMMETRIC DIRECT SPARSE SOLVER RUNNING ON
 	1 HOST:        1 MPI RANK  x 8 THREADS
 	NUMBER OF EQUATIONS:     547412
 	NUMBER OF RHS:           1
 	NUMBER OF FLOPS:         4.003e+12

     CHECK POINT  START OF SOLVER     

     CHECK POINT  END OF SOLVER       

       ELAPSED USER TIME (SEC)      =   139.54    
       ELAPSED SYSTEM TIME (SEC)    =  0.47000    
       ELAPSED TOTAL CPU TIME (SEC) =   140.01    
       ELAPSED WALLCLOCK TIME (SEC) =           18

               CONVERGENCE CHECKS FOR EQUILIBRIUM ITERATION     1


 AVERAGE FORCE                      0.229       TIME AVG. FORCE       0.128    
 LARGEST RESIDUAL FORCE            -4.379E-08   AT NODE       4788   DOF  2
   INSTANCE: NDBR6                                                                           
 LARGEST INCREMENT OF DISP.         1.388E-05   AT NODE         29   DOF  2
   INSTANCE: NDBR6                                                                           
 LARGEST CORRECTION TO DISP.        1.119E-10   AT NODE        604   DOF  2
   INSTANCE: NDBR6                                                                           
          THE FORCE     EQUILIBRIUM EQUATIONS HAVE CONVERGED

 AVERAGE HEAT FLUX                  2.026E-14   TIME AVG. HEAT FLUX   1.000E-02
 LARGEST RESIDUAL HEAT FLUX        -3.294E-21   AT NODE      12726   DOF 11
   INSTANCE: NDBR6                                                                           
 LARGEST INCREMENT OF TEMP.         1.297E-02   AT NODE     125919   DOF 11
   INSTANCE: NDBR6                                                                           
 LARGEST CORRECTION TO TEMP.       -8.766E-05   AT NODE     109404   DOF 11
   INSTANCE: NDBR6                                                                           
          THERE IS ZERO HEAT FLUX EVERYWHERE
 

 ***WARNING: THERE IS ZERO HEAT FLUX EVERYWHERE IN THE MODEL BASED ON THE 
             DEFAULT CRITERION. PLEASE CHECK THE VALUE OF THE AVERAGE HEAT FLUX 
             DURING THE CURRENT ITERATION TO VERIFY THAT THE HEAT FLUX IS SMALL 
             ENOUGH TO BE TREATED AS ZERO. IF NOT, PLEASE USE THE SOLUTION 
             CONTROLS TO RESET THE CRITERION FOR ZERO HEAT FLUX.

 MAXIMUM NON-PRESCRIBED INCREMENT IN TEMPERATURE IS   1.297E-02

 ITERATION SUMMARY FOR THE INCREMENT:   1 TOTAL ITERATIONS, OF WHICH
   0 ARE SEVERE DISCONTINUITY ITERATIONS AND  1 ARE EQUILIBRIUM ITERATIONS.

 TIME INCREMENT COMPLETED   5.55    ,  FRACTION OF STEP COMPLETED  8.000E-02
 STEP TIME COMPLETED        44.4    ,  TOTAL TIME COMPLETED        1.844E+03


  INCREMENT     9 STARTS. ATTEMPT NUMBER  1, TIME INCREMENT   5.55    
 
	UNSYMMETRIC DIRECT SPARSE SOLVER RUNNING ON
 	1 HOST:        1 MPI RANK  x 8 THREADS
 	NUMBER OF EQUATIONS:     547412
 	NUMBER OF RHS:           1
 	NUMBER OF FLOPS:         4.003e+12

     CHECK POINT  START OF SOLVER     

     CHECK POINT  END OF SOLVER       

       ELAPSED USER TIME (SEC)      =   139.97    
       ELAPSED SYSTEM TIME (SEC)    =  0.49000    
       ELAPSED TOTAL CPU TIME (SEC) =   140.46    
       ELAPSED WALLCLOCK TIME (SEC) =           18

               CONVERGENCE CHECKS FOR EQUILIBRIUM ITERATION     1


 AVERAGE FORCE                      0.258       TIME AVG. FORCE       0.143    
 LARGEST RESIDUAL FORCE            -4.978E-08   AT NODE       4788   DOF  2
   INSTANCE: NDBR6                                                                           
 LARGEST INCREMENT OF DISP.         1.388E-05   AT NODE         29   DOF  2
   INSTANCE: NDBR6                                                                           
 LARGEST CORRECTION TO DISP.        1.119E-10   AT NODE        604   DOF  2
   INSTANCE: NDBR6                                                                           
          THE FORCE     EQUILIBRIUM EQUATIONS HAVE CONVERGED

 AVERAGE HEAT FLUX                  2.015E-14   TIME AVG. HEAT FLUX   1.000E-02
 LARGEST RESIDUAL HEAT FLUX        -3.276E-21   AT NODE      12726   DOF 11
   INSTANCE: NDBR6                                                                           
 LARGEST INCREMENT OF TEMP.         1.291E-02   AT NODE     125919   DOF 11
   INSTANCE: NDBR6                                                                           
 LARGEST CORRECTION TO TEMP.       -8.654E-05   AT NODE     109404   DOF 11
   INSTANCE: NDBR6                                                                           
          THERE IS ZERO HEAT FLUX EVERYWHERE
 

 ***WARNING: THERE IS ZERO HEAT FLUX EVERYWHERE IN THE MODEL BASED ON THE 
             DEFAULT CRITERION. PLEASE CHECK THE VALUE OF THE AVERAGE HEAT FLUX 
             DURING THE CURRENT ITERATION TO VERIFY THAT THE HEAT FLUX IS SMALL 
             ENOUGH TO BE TREATED AS ZERO. IF NOT, PLEASE USE THE SOLUTION 
             CONTROLS TO RESET THE CRITERION FOR ZERO HEAT FLUX.

 MAXIMUM NON-PRESCRIBED INCREMENT IN TEMPERATURE IS   1.291E-02

 ITERATION SUMMARY FOR THE INCREMENT:   1 TOTAL ITERATIONS, OF WHICH
   0 ARE SEVERE DISCONTINUITY ITERATIONS AND  1 ARE EQUILIBRIUM ITERATIONS.

 TIME INCREMENT COMPLETED   5.55    ,  FRACTION OF STEP COMPLETED  9.000E-02
 STEP TIME COMPLETED        49.9    ,  TOTAL TIME COMPLETED        1.850E+03


  INCREMENT    10 STARTS. ATTEMPT NUMBER  1, TIME INCREMENT   5.55    
 
	UNSYMMETRIC DIRECT SPARSE SOLVER RUNNING ON
 	1 HOST:        1 MPI RANK  x 8 THREADS
 	NUMBER OF EQUATIONS:     547412
 	NUMBER OF RHS:           1
 	NUMBER OF FLOPS:         4.003e+12

     CHECK POINT  START OF SOLVER     

     CHECK POINT  END OF SOLVER       

       ELAPSED USER TIME (SEC)      =   140.06    
       ELAPSED SYSTEM TIME (SEC)    =  0.45000    
       ELAPSED TOTAL CPU TIME (SEC) =   140.51    
       ELAPSED WALLCLOCK TIME (SEC) =           18

               CONVERGENCE CHECKS FOR EQUILIBRIUM ITERATION     1


 AVERAGE FORCE                      0.286       TIME AVG. FORCE       0.157    
 LARGEST RESIDUAL FORCE            -5.576E-08   AT NODE       4788   DOF  2
   INSTANCE: NDBR6                                                                           
 LARGEST INCREMENT OF DISP.         1.388E-05   AT NODE         29   DOF  2
   INSTANCE: NDBR6                                                                           
 LARGEST CORRECTION TO DISP.        1.118E-10   AT NODE        604   DOF  2
   INSTANCE: NDBR6                                                                           
          THE FORCE     EQUILIBRIUM EQUATIONS HAVE CONVERGED

 AVERAGE HEAT FLUX                  2.005E-14   TIME AVG. HEAT FLUX   1.000E-02
 LARGEST RESIDUAL HEAT FLUX        -3.259E-21   AT NODE      12726   DOF 11
   INSTANCE: NDBR6                                                                           
 LARGEST INCREMENT OF TEMP.         1.284E-02   AT NODE     125919   DOF 11
   INSTANCE: NDBR6                                                                           
 LARGEST CORRECTION TO TEMP.       -8.543E-05   AT NODE     109404   DOF 11
   INSTANCE: NDBR6                                                                           
          THERE IS ZERO HEAT FLUX EVERYWHERE
 

 ***WARNING: THERE IS ZERO HEAT FLUX EVERYWHERE IN THE MODEL BASED ON THE 
             DEFAULT CRITERION. PLEASE CHECK THE VALUE OF THE AVERAGE HEAT FLUX 
             DURING THE CURRENT ITERATION TO VERIFY THAT THE HEAT FLUX IS SMALL 
             ENOUGH TO BE TREATED AS ZERO. IF NOT, PLEASE USE THE SOLUTION 
             CONTROLS TO RESET THE CRITERION FOR ZERO HEAT FLUX.

 MAXIMUM NON-PRESCRIBED INCREMENT IN TEMPERATURE IS   1.284E-02

 ITERATION SUMMARY FOR THE INCREMENT:   1 TOTAL ITERATIONS, OF WHICH
   0 ARE SEVERE DISCONTINUITY ITERATIONS AND  1 ARE EQUILIBRIUM ITERATIONS.

 TIME INCREMENT COMPLETED   5.55    ,  FRACTION OF STEP COMPLETED  0.100    
 STEP TIME COMPLETED        55.5    ,  TOTAL TIME COMPLETED        1.855E+03


  INCREMENT    11 STARTS. ATTEMPT NUMBER  1, TIME INCREMENT   5.55    
 
	UNSYMMETRIC DIRECT SPARSE SOLVER RUNNING ON
 	1 HOST:        1 MPI RANK  x 8 THREADS
 	NUMBER OF EQUATIONS:     547412
 	NUMBER OF RHS:           1
 	NUMBER OF FLOPS:         4.003e+12

     CHECK POINT  START OF SOLVER     

     CHECK POINT  END OF SOLVER       

       ELAPSED USER TIME (SEC)      =   142.02    
       ELAPSED SYSTEM TIME (SEC)    =  0.44000    
       ELAPSED TOTAL CPU TIME (SEC) =   142.46    
       ELAPSED WALLCLOCK TIME (SEC) =           18

               CONVERGENCE CHECKS FOR EQUILIBRIUM ITERATION     1


 AVERAGE FORCE                      0.315       TIME AVG. FORCE       0.171    
 LARGEST RESIDUAL FORCE            -6.174E-08   AT NODE       4788   DOF  2
   INSTANCE: NDBR6                                                                           
 LARGEST INCREMENT OF DISP.         1.388E-05   AT NODE         29   DOF  2
   INSTANCE: NDBR6                                                                           
 LARGEST CORRECTION TO DISP.        1.118E-10   AT NODE        604   DOF  2
   INSTANCE: NDBR6                                                                           
          THE FORCE     EQUILIBRIUM EQUATIONS HAVE CONVERGED

 AVERAGE HEAT FLUX                  1.995E-14   TIME AVG. HEAT FLUX   1.000E-02
 LARGEST RESIDUAL HEAT FLUX        -3.241E-21   AT NODE      12726   DOF 11
   INSTANCE: NDBR6                                                                           
 LARGEST INCREMENT OF TEMP.         1.278E-02   AT NODE     125919   DOF 11
   INSTANCE: NDBR6                                                                           
 LARGEST CORRECTION TO TEMP.       -8.435E-05   AT NODE     109404   DOF 11
   INSTANCE: NDBR6                                                                           
          THERE IS ZERO HEAT FLUX EVERYWHERE
 

 ***WARNING: THERE IS ZERO HEAT FLUX EVERYWHERE IN THE MODEL BASED ON THE 
             DEFAULT CRITERION. PLEASE CHECK THE VALUE OF THE AVERAGE HEAT FLUX 
             DURING THE CURRENT ITERATION TO VERIFY THAT THE HEAT FLUX IS SMALL 
             ENOUGH TO BE TREATED AS ZERO. IF NOT, PLEASE USE THE SOLUTION 
             CONTROLS TO RESET THE CRITERION FOR ZERO HEAT FLUX.

 MAXIMUM NON-PRESCRIBED INCREMENT IN TEMPERATURE IS   1.278E-02

 ITERATION SUMMARY FOR THE INCREMENT:   1 TOTAL ITERATIONS, OF WHICH
   0 ARE SEVERE DISCONTINUITY ITERATIONS AND  1 ARE EQUILIBRIUM ITERATIONS.

 TIME INCREMENT COMPLETED   5.55    ,  FRACTION OF STEP COMPLETED  0.110    
 STEP TIME COMPLETED        61.0    ,  TOTAL TIME COMPLETED        1.861E+03


  INCREMENT    12 STARTS. ATTEMPT NUMBER  1, TIME INCREMENT   5.55    
 
	UNSYMMETRIC DIRECT SPARSE SOLVER RUNNING ON
 	1 HOST:        1 MPI RANK  x 8 THREADS
 	NUMBER OF EQUATIONS:     547412
 	NUMBER OF RHS:           1
 	NUMBER OF FLOPS:         4.003e+12

     CHECK POINT  START OF SOLVER     

     CHECK POINT  END OF SOLVER       

       ELAPSED USER TIME (SEC)      =   142.63    
       ELAPSED SYSTEM TIME (SEC)    =  0.43000    
       ELAPSED TOTAL CPU TIME (SEC) =   143.06    
       ELAPSED WALLCLOCK TIME (SEC) =           18

               CONVERGENCE CHECKS FOR EQUILIBRIUM ITERATION     1


 AVERAGE FORCE                      0.343       TIME AVG. FORCE       0.186    
 LARGEST RESIDUAL FORCE            -6.772E-08   AT NODE       4788   DOF  2
   INSTANCE: NDBR6                                                                           
 LARGEST INCREMENT OF DISP.         1.388E-05   AT NODE         29   DOF  2
   INSTANCE: NDBR6                                                                           
 LARGEST CORRECTION TO DISP.        1.118E-10   AT NODE        604   DOF  2
   INSTANCE: NDBR6                                                                           
          THE FORCE     EQUILIBRIUM EQUATIONS HAVE CONVERGED

 AVERAGE HEAT FLUX                  1.985E-14   TIME AVG. HEAT FLUX   1.000E-02
 LARGEST RESIDUAL HEAT FLUX        -3.224E-21   AT NODE      12726   DOF 11
   INSTANCE: NDBR6                                                                           
 LARGEST INCREMENT OF TEMP.         1.272E-02   AT NODE     125919   DOF 11
   INSTANCE: NDBR6                                                                           
[...]

 TIME INCREMENT COMPLETED   5.55    ,  FRACTION OF STEP COMPLETED  0.980    
 STEP TIME COMPLETED        544.    ,  TOTAL TIME COMPLETED        2.344E+03


  INCREMENT   102 STARTS. ATTEMPT NUMBER  1, TIME INCREMENT   5.55    
 
	UNSYMMETRIC DIRECT SPARSE SOLVER RUNNING ON
 	1 HOST:        1 MPI RANK  x 8 THREADS
 	NUMBER OF EQUATIONS:     547412
 	NUMBER OF RHS:           1
 	NUMBER OF FLOPS:         4.003e+12

     CHECK POINT  START OF SOLVER     

     CHECK POINT  END OF SOLVER       

       ELAPSED USER TIME (SEC)      =   139.82    
       ELAPSED SYSTEM TIME (SEC)    =  0.42000    
       ELAPSED TOTAL CPU TIME (SEC) =   140.24    
       ELAPSED WALLCLOCK TIME (SEC) =           18

               CONVERGENCE CHECKS FOR EQUILIBRIUM ITERATION     1


 AVERAGE FORCE                       1.23       TIME AVG. FORCE        1.11    
 LARGEST RESIDUAL FORCE             -1.05       AT NODE      21337   DOF  3
   INSTANCE: NDBR6                                                                           
 LARGEST INCREMENT OF DISP.         2.833E-05   AT NODE      21967   DOF  2
   INSTANCE: NDBR6                                                                           
 LARGEST CORRECTION TO DISP.        4.096E-06   AT NODE      21999   DOF  2
   INSTANCE: NDBR6                                                                           
          FORCE     EQUILIBRIUM NOT ACHIEVED WITHIN TOLERANCE.

 AVERAGE HEAT FLUX                  1.270E-14   TIME AVG. HEAT FLUX   1.000E-02
 LARGEST RESIDUAL HEAT FLUX         9.508E-15   AT NODE      18880   DOF 11
   INSTANCE: NDBR6                                                                           
 LARGEST INCREMENT OF TEMP.        -7.972E-02   AT NODE      18994   DOF 11
   INSTANCE: NDBR6                                                                           
 LARGEST CORRECTION TO TEMP.        0.126       AT NODE      17791   DOF 11
   INSTANCE: NDBR6                                                                           
          THERE IS ZERO HEAT FLUX EVERYWHERE
 

 ***WARNING: THERE IS ZERO HEAT FLUX EVERYWHERE IN THE MODEL BASED ON THE 
             DEFAULT CRITERION. PLEASE CHECK THE VALUE OF THE AVERAGE HEAT FLUX 
             DURING THE CURRENT ITERATION TO VERIFY THAT THE HEAT FLUX IS SMALL 
             ENOUGH TO BE TREATED AS ZERO. IF NOT, PLEASE USE THE SOLUTION 
             CONTROLS TO RESET THE CRITERION FOR ZERO HEAT FLUX.
 
	UNSYMMETRIC DIRECT SPARSE SOLVER RUNNING ON
 	1 HOST:        1 MPI RANK  x 8 THREADS
 	NUMBER OF EQUATIONS:     547412
 	NUMBER OF RHS:           1
 	NUMBER OF FLOPS:         4.003e+12

     CHECK POINT  START OF SOLVER     

     CHECK POINT  END OF SOLVER       

       ELAPSED USER TIME (SEC)      =   139.72    
       ELAPSED SYSTEM TIME (SEC)    =  0.48000    
       ELAPSED TOTAL CPU TIME (SEC) =   140.20    
       ELAPSED WALLCLOCK TIME (SEC) =           17

               CONVERGENCE CHECKS FOR EQUILIBRIUM ITERATION     2


 AVERAGE FORCE                       1.24       TIME AVG. FORCE        1.11    
 LARGEST RESIDUAL FORCE            -0.212       AT NODE      28220   DOF  3
   INSTANCE: NDBR6                                                                           
 LARGEST INCREMENT OF DISP.         2.673E-05   AT NODE      19186   DOF  2
   INSTANCE: NDBR6                                                                           
 LARGEST CORRECTION TO DISP.       -1.668E-06   AT NODE      21944   DOF  2
   INSTANCE: NDBR6                                                                           
          FORCE     EQUILIBRIUM NOT ACHIEVED WITHIN TOLERANCE.

 AVERAGE HEAT FLUX                  1.270E-14   TIME AVG. HEAT FLUX   1.000E-02
 LARGEST RESIDUAL HEAT FLUX        -4.268E-15   AT NODE      17789   DOF 11
   INSTANCE: NDBR6                                                                           
 LARGEST INCREMENT OF TEMP.        -0.111       AT NODE      19108   DOF 11
   INSTANCE: NDBR6                                                                           
 LARGEST CORRECTION TO TEMP.        6.348E-02   AT NODE      18952   DOF 11
   INSTANCE: NDBR6                                                                           
          THERE IS ZERO HEAT FLUX EVERYWHERE
 

 ***WARNING: THERE IS ZERO HEAT FLUX EVERYWHERE IN THE MODEL BASED ON THE 
             DEFAULT CRITERION. PLEASE CHECK THE VALUE OF THE AVERAGE HEAT FLUX 
             DURING THE CURRENT ITERATION TO VERIFY THAT THE HEAT FLUX IS SMALL 
             ENOUGH TO BE TREATED AS ZERO. IF NOT, PLEASE USE THE SOLUTION 
             CONTROLS TO RESET THE CRITERION FOR ZERO HEAT FLUX.
 
	UNSYMMETRIC DIRECT SPARSE SOLVER RUNNING ON
 	1 HOST:        1 MPI RANK  x 8 THREADS
 	NUMBER OF EQUATIONS:     547412
 	NUMBER OF RHS:           1
 	NUMBER OF FLOPS:         4.003e+12

     CHECK POINT  START OF SOLVER     

     CHECK POINT  END OF SOLVER       

       ELAPSED USER TIME (SEC)      =   140.62    
       ELAPSED SYSTEM TIME (SEC)    =  0.46000    
       ELAPSED TOTAL CPU TIME (SEC) =   141.08    
       ELAPSED WALLCLOCK TIME (SEC) =           18

               CONVERGENCE CHECKS FOR EQUILIBRIUM ITERATION     3


 AVERAGE FORCE                       1.24       TIME AVG. FORCE        1.11    
 LARGEST RESIDUAL FORCE             3.859E-02   AT NODE      24319   DOF  3
   INSTANCE: NDBR6                                                                           
 LARGEST INCREMENT OF DISP.         2.659E-05   AT NODE      19186   DOF  2
   INSTANCE: NDBR6                                                                           
 LARGEST CORRECTION TO DISP.        3.227E-07   AT NODE      22235   DOF  3
   INSTANCE: NDBR6                                                                           
          FORCE     EQUILIBRIUM NOT ACHIEVED WITHIN TOLERANCE.

 AVERAGE HEAT FLUX                  1.270E-14   TIME AVG. HEAT FLUX   1.000E-02
 LARGEST RESIDUAL HEAT FLUX        -3.751E-15   AT NODE      18199   DOF 11
   INSTANCE: NDBR6                                                                           
 LARGEST INCREMENT OF TEMP.        -0.100       AT NODE      22386   DOF 11
   INSTANCE: NDBR6                                                                           
 LARGEST CORRECTION TO TEMP.       -2.852E-02   AT NODE      50175   DOF 11
   INSTANCE: NDBR6                                                                           
          THERE IS ZERO HEAT FLUX EVERYWHERE
 

 ***WARNING: THERE IS ZERO HEAT FLUX EVERYWHERE IN THE MODEL BASED ON THE 
             DEFAULT CRITERION. PLEASE CHECK THE VALUE OF THE AVERAGE HEAT FLUX 
             DURING THE CURRENT ITERATION TO VERIFY THAT THE HEAT FLUX IS SMALL 
             ENOUGH TO BE TREATED AS ZERO. IF NOT, PLEASE USE THE SOLUTION 
             CONTROLS TO RESET THE CRITERION FOR ZERO HEAT FLUX.
 
	UNSYMMETRIC DIRECT SPARSE SOLVER RUNNING ON
 	1 HOST:        1 MPI RANK  x 8 THREADS
 	NUMBER OF EQUATIONS:     547412
 	NUMBER OF RHS:           1
 	NUMBER OF FLOPS:         4.003e+12

     CHECK POINT  START OF SOLVER     

     CHECK POINT  END OF SOLVER       

       ELAPSED USER TIME (SEC)      =   141.05    
       ELAPSED SYSTEM TIME (SEC)    =  0.41000    
       ELAPSED TOTAL CPU TIME (SEC) =   141.46    
       ELAPSED WALLCLOCK TIME (SEC) =           18

               CONVERGENCE CHECKS FOR EQUILIBRIUM ITERATION     4


 AVERAGE FORCE                       1.24       TIME AVG. FORCE        1.11    
 LARGEST RESIDUAL FORCE             2.586E-03   AT NODE      24100   DOF  3
   INSTANCE: NDBR6                                                                           
 LARGEST INCREMENT OF DISP.         2.659E-05   AT NODE      19186   DOF  2
   INSTANCE: NDBR6                                                                           
 LARGEST CORRECTION TO DISP.        2.518E-08   AT NODE      22233   DOF  3
   INSTANCE: NDBR6                                                                           
          THE FORCE     EQUILIBRIUM EQUATIONS HAVE CONVERGED

 AVERAGE HEAT FLUX                  1.270E-14   TIME AVG. HEAT FLUX   1.000E-02
 LARGEST RESIDUAL HEAT FLUX        -1.907E-15   AT NODE      26627   DOF 11
   INSTANCE: NDBR6                                                                           
 LARGEST INCREMENT OF TEMP.        -0.100       AT NODE      22386   DOF 11
   INSTANCE: NDBR6                                                                           
 LARGEST CORRECTION TO TEMP.       -2.364E-02   AT NODE      18199   DOF 11
   INSTANCE: NDBR6                                                                           
          THERE IS ZERO HEAT FLUX EVERYWHERE
 

 ***WARNING: THERE IS ZERO HEAT FLUX EVERYWHERE IN THE MODEL BASED ON THE 
             DEFAULT CRITERION. PLEASE CHECK THE VALUE OF THE AVERAGE HEAT FLUX 
             DURING THE CURRENT ITERATION TO VERIFY THAT THE HEAT FLUX IS SMALL 
             ENOUGH TO BE TREATED AS ZERO. IF NOT, PLEASE USE THE SOLUTION 
             CONTROLS TO RESET THE CRITERION FOR ZERO HEAT FLUX.

 MAXIMUM NON-PRESCRIBED INCREMENT IN TEMPERATURE IS  -0.100    

 ITERATION SUMMARY FOR THE INCREMENT:   4 TOTAL ITERATIONS, OF WHICH
   0 ARE SEVERE DISCONTINUITY ITERATIONS AND  4 ARE EQUILIBRIUM ITERATIONS.

 TIME INCREMENT COMPLETED   5.55    ,  FRACTION OF STEP COMPLETED  0.990    
 STEP TIME COMPLETED        549.    ,  TOTAL TIME COMPLETED        2.349E+03


  INCREMENT   103 STARTS. ATTEMPT NUMBER  1, TIME INCREMENT   5.55    
 
	UNSYMMETRIC DIRECT SPARSE SOLVER RUNNING ON
 	1 HOST:        1 MPI RANK  x 8 THREADS
 	NUMBER OF EQUATIONS:     547412
 	NUMBER OF RHS:           1
 	NUMBER OF FLOPS:         4.003e+12

     CHECK POINT  START OF SOLVER     

     CHECK POINT  END OF SOLVER       

       ELAPSED USER TIME (SEC)      =   139.74    
       ELAPSED SYSTEM TIME (SEC)    =  0.46000    
       ELAPSED TOTAL CPU TIME (SEC) =   140.20    
       ELAPSED WALLCLOCK TIME (SEC) =           18

               CONVERGENCE CHECKS FOR EQUILIBRIUM ITERATION     1


 AVERAGE FORCE                       1.18       TIME AVG. FORCE        1.12    
 LARGEST RESIDUAL FORCE             -1.16       AT NODE      39806   DOF  3
   INSTANCE: NDBR6                                                                           
 LARGEST INCREMENT OF DISP.         3.051E-05   AT NODE      21967   DOF  2
   INSTANCE: NDBR6                                                                           
 LARGEST CORRECTION TO DISP.        4.752E-06   AT NODE      22001   DOF  2
   INSTANCE: NDBR6                                                                           
          FORCE     EQUILIBRIUM NOT ACHIEVED WITHIN TOLERANCE.

 AVERAGE HEAT FLUX                  1.264E-14   TIME AVG. HEAT FLUX   1.000E-02
 LARGEST RESIDUAL HEAT FLUX         9.882E-15   AT NODE      18241   DOF 11
   INSTANCE: NDBR6                                                                           
 LARGEST INCREMENT OF TEMP.         8.600E-02   AT NODE      22424   DOF 11
   INSTANCE: NDBR6                                                                           
 LARGEST CORRECTION TO TEMP.        0.131       AT NODE      17787   DOF 11
   INSTANCE: NDBR6                                                                           
          THERE IS ZERO HEAT FLUX EVERYWHERE
 

 ***WARNING: THERE IS ZERO HEAT FLUX EVERYWHERE IN THE MODEL BASED ON THE 
             DEFAULT CRITERION. PLEASE CHECK THE VALUE OF THE AVERAGE HEAT FLUX 
             DURING THE CURRENT ITERATION TO VERIFY THAT THE HEAT FLUX IS SMALL 
             ENOUGH TO BE TREATED AS ZERO. IF NOT, PLEASE USE THE SOLUTION 
             CONTROLS TO RESET THE CRITERION FOR ZERO HEAT FLUX.
 
	UNSYMMETRIC DIRECT SPARSE SOLVER RUNNING ON
 	1 HOST:        1 MPI RANK  x 8 THREADS
 	NUMBER OF EQUATIONS:     547412
 	NUMBER OF RHS:           1
 	NUMBER OF FLOPS:         4.003e+12

     CHECK POINT  START OF SOLVER     

     CHECK POINT  END OF SOLVER       

       ELAPSED USER TIME (SEC)      =   140.19    
       ELAPSED SYSTEM TIME (SEC)    =  0.46000    
       ELAPSED TOTAL CPU TIME (SEC) =   140.65    
       ELAPSED WALLCLOCK TIME (SEC) =           18

               CONVERGENCE CHECKS FOR EQUILIBRIUM ITERATION     2


 AVERAGE FORCE                       1.19       TIME AVG. FORCE        1.12    
 LARGEST RESIDUAL FORCE            -0.242       AT NODE      21604   DOF  3
   INSTANCE: NDBR6                                                                           
 LARGEST INCREMENT OF DISP.         2.833E-05   AT NODE      21967   DOF  2
   INSTANCE: NDBR6                                                                           
 LARGEST CORRECTION TO DISP.       -2.239E-06   AT NODE      21939   DOF  2
   INSTANCE: NDBR6                                                                           
          FORCE     EQUILIBRIUM NOT ACHIEVED WITHIN TOLERANCE.

 AVERAGE HEAT FLUX                  1.264E-14   TIME AVG. HEAT FLUX   1.000E-02
 LARGEST RESIDUAL HEAT FLUX        -7.828E-15   AT NODE      19107   DOF 11
   INSTANCE: NDBR6                                                                           
 LARGEST INCREMENT OF TEMP.        -0.118       AT NODE      18991   DOF 11
   INSTANCE: NDBR6                                                                           
 LARGEST CORRECTION TO TEMP.        7.138E-02   AT NODE      19107   DOF 11
   INSTANCE: NDBR6                                                                           
          THERE IS ZERO HEAT FLUX EVERYWHERE
 

 ***WARNING: THERE IS ZERO HEAT FLUX EVERYWHERE IN THE MODEL BASED ON THE 
             DEFAULT CRITERION. PLEASE CHECK THE VALUE OF THE AVERAGE HEAT FLUX 
             DURING THE CURRENT ITERATION TO VERIFY THAT THE HEAT FLUX IS SMALL 
             ENOUGH TO BE TREATED AS ZERO. IF NOT, PLEASE USE THE SOLUTION 
             CONTROLS TO RESET THE CRITERION FOR ZERO HEAT FLUX.
 
	UNSYMMETRIC DIRECT SPARSE SOLVER RUNNING ON
 	1 HOST:        1 MPI RANK  x 8 THREADS
 	NUMBER OF EQUATIONS:     547412
 	NUMBER OF RHS:           1
 	NUMBER OF FLOPS:         4.003e+12

     CHECK POINT  START OF SOLVER     

     CHECK POINT  END OF SOLVER       

       ELAPSED USER TIME (SEC)      =   139.99    
       ELAPSED SYSTEM TIME (SEC)    =  0.45000    
       ELAPSED TOTAL CPU TIME (SEC) =   140.44    
       ELAPSED WALLCLOCK TIME (SEC) =           18

               CONVERGENCE CHECKS FOR EQUILIBRIUM ITERATION     3


 AVERAGE FORCE                       1.19       TIME AVG. FORCE        1.12    
 LARGEST RESIDUAL FORCE             4.956E-02   AT NODE      24420   DOF  3
   INSTANCE: NDBR6                                                                           
 LARGEST INCREMENT OF DISP.         2.808E-05   AT NODE      21967   DOF  2
   INSTANCE: NDBR6                                                                           
 LARGEST CORRECTION TO DISP.        5.114E-07   AT NODE      22236   DOF  3
   INSTANCE: NDBR6                                                                           
          FORCE     EQUILIBRIUM NOT ACHIEVED WITHIN TOLERANCE.

 AVERAGE HEAT FLUX                  1.264E-14   TIME AVG. HEAT FLUX   1.000E-02
 LARGEST RESIDUAL HEAT FLUX        -4.183E-15   AT NODE      17785   DOF 11
   INSTANCE: NDBR6                                                                           
 LARGEST INCREMENT OF TEMP.        -0.104       AT NODE      18991   DOF 11
   INSTANCE: NDBR6                                                                           
 LARGEST CORRECTION TO TEMP.       -6.197E-02   AT NODE      22385   DOF 11
   INSTANCE: NDBR6                                                                           
          THERE IS ZERO HEAT FLUX EVERYWHERE
 

 ***WARNING: THERE IS ZERO HEAT FLUX EVERYWHERE IN THE MODEL BASED ON THE 
             DEFAULT CRITERION. PLEASE CHECK THE VALUE OF THE AVERAGE HEAT FLUX 
             DURING THE CURRENT ITERATION TO VERIFY THAT THE HEAT FLUX IS SMALL 
             ENOUGH TO BE TREATED AS ZERO. IF NOT, PLEASE USE THE SOLUTION 
             CONTROLS TO RESET THE CRITERION FOR ZERO HEAT FLUX.
 
	UNSYMMETRIC DIRECT SPARSE SOLVER RUNNING ON
 	1 HOST:        1 MPI RANK  x 8 THREADS
 	NUMBER OF EQUATIONS:     547412
 	NUMBER OF RHS:           1
 	NUMBER OF FLOPS:         4.003e+12

     CHECK POINT  START OF SOLVER     

     CHECK POINT  END OF SOLVER       

       ELAPSED USER TIME (SEC)      =   138.15    
       ELAPSED SYSTEM TIME (SEC)    =  0.43000    
       ELAPSED TOTAL CPU TIME (SEC) =   138.58    
       ELAPSED WALLCLOCK TIME (SEC) =           17

               CONVERGENCE CHECKS FOR EQUILIBRIUM ITERATION     4


 AVERAGE FORCE                       1.19       TIME AVG. FORCE        1.12    
 LARGEST RESIDUAL FORCE             4.424E-03   AT NODE      24418   DOF  2
   INSTANCE: NDBR6                                                                           
 LARGEST INCREMENT OF DISP.         2.806E-05   AT NODE      21967   DOF  2
   INSTANCE: NDBR6                                                                           
 LARGEST CORRECTION TO DISP.        4.820E-08   AT NODE      22252   DOF  3
   INSTANCE: NDBR6                                                                           
          THE FORCE     EQUILIBRIUM EQUATIONS HAVE CONVERGED

 AVERAGE HEAT FLUX                  1.264E-14   TIME AVG. HEAT FLUX   1.000E-02
 LARGEST RESIDUAL HEAT FLUX        -4.621E-15   AT NODE      17672   DOF 11
   INSTANCE: NDBR6                                                                           
 LARGEST INCREMENT OF TEMP.        -0.103       AT NODE      18991   DOF 11
   INSTANCE: NDBR6                                                                           
 LARGEST CORRECTION TO TEMP.       -2.725E-02   AT NODE      17785   DOF 11
   INSTANCE: NDBR6                                                                           
          THERE IS ZERO HEAT FLUX EVERYWHERE
 

 ***WARNING: THERE IS ZERO HEAT FLUX EVERYWHERE IN THE MODEL BASED ON THE 
             DEFAULT CRITERION. PLEASE CHECK THE VALUE OF THE AVERAGE HEAT FLUX 
             DURING THE CURRENT ITERATION TO VERIFY THAT THE HEAT FLUX IS SMALL 
             ENOUGH TO BE TREATED AS ZERO. IF NOT, PLEASE USE THE SOLUTION 
             CONTROLS TO RESET THE CRITERION FOR ZERO HEAT FLUX.

 MAXIMUM NON-PRESCRIBED INCREMENT IN TEMPERATURE IS  -0.103    

 ITERATION SUMMARY FOR THE INCREMENT:   4 TOTAL ITERATIONS, OF WHICH
   0 ARE SEVERE DISCONTINUITY ITERATIONS AND  4 ARE EQUILIBRIUM ITERATIONS.

 TIME INCREMENT COMPLETED   5.55    ,  FRACTION OF STEP COMPLETED   1.00    
 STEP TIME COMPLETED        555.    ,  TOTAL TIME COMPLETED        2.355E+03


          THE ANALYSIS HAS BEEN COMPLETED



     ANALYSIS SUMMARY:
     TOTAL OF        108  INCREMENTS
                       0  CUTBACKS IN AUTOMATIC INCREMENTATION
                     226  ITERATIONS INCLUDING CONTACT ITERATIONS IF PRESENT
                     226  PASSES THROUGH THE EQUATION SOLVER OF WHICH 
                     226  INVOLVE MATRIX DECOMPOSITION, INCLUDING
                       0  DECOMPOSITION(S) OF THE MASS MATRIX
                       1  REORDERING OF EQUATIONS TO MINIMIZE WAVEFRONT
                       0  ADDITIONAL RESIDUAL EVALUATIONS FOR LINE SEARCHES
                       0  ADDITIONAL OPERATOR EVALUATIONS FOR LINE SEARCHES
                       6  WARNING MESSAGES DURING USER INPUT PROCESSING
                24623482  WARNING MESSAGES DURING ANALYSIS
                24623256  ANALYSIS WARNINGS ARE NUMERICAL PROBLEM MESSAGES
                       0  ANALYSIS WARNINGS ARE NEGATIVE EIGENVALUE MESSAGES
                       0  ERROR MESSAGES



     JOB TIME SUMMARY
       USER TIME (SEC)      =     4.00E+04
       SYSTEM TIME (SEC)    =     4.87E+02
       TOTAL CPU TIME (SEC) =     4.05E+04
       WALLCLOCK TIME (SEC) =         5739
       MEMORY PEAK (GB)     =           18
