1

   Abaqus 2023.HF4                                  Date 13-Aug-2024   Time 17:00:34
   For use by AALTO UNIVERSITY under license from Dassault Systemes or its subsidiary.

                                                                                 
                                                                                 
 STEP    1     INCREMENT     1     STEP TIME    0.00    


                        S T E P       1     S T A T I C   A N A L Y S I S


                                                                                          

     AUTOMATIC TIME CONTROL WITH -
          A SUGGESTED INITIAL TIME INCREMENT OF                2.000E-02
          AND A TOTAL TIME PERIOD OF                            1.00    
          THE MINIMUM TIME INCREMENT ALLOWED IS                1.000E-10
          THE MAXIMUM TIME INCREMENT ALLOWED IS                 1.00    

     LINEAR EQUATION SOLVER TYPE         DIRECT SPARSE

 CONVERGENCE TOLERANCE PARAMETERS FOR FORCE    
     CRITERION FOR RESIDUAL FORCE     FOR A NONLINEAR PROBLEM          5.000E-03
     CRITERION FOR DISP.    CORRECTION IN A NONLINEAR PROBLEM          1.000E-02
     INITIAL VALUE OF TIME AVERAGE FORCE                               1.000E-02
     AVERAGE FORCE     IS TIME AVERAGE FORCE    
     ALTERNATE CRIT. FOR RESIDUAL FORCE     FOR A NONLINEAR PROBLEM    2.000E-02
     CRITERION FOR ZERO FORCE     RELATIVE TO TIME AVRG. FORCE         1.000E-05
     CRITERION FOR RESIDUAL FORCE     WHEN THERE IS ZERO FLUX          1.000E-05
     CRITERION FOR DISP.    CORRECTION WHEN THERE IS ZERO FLUX         1.000E-03
     CRITERION FOR RESIDUAL FORCE     FOR A LINEAR INCREMENT           1.000E-08
     FIELD CONVERSION RATIO                                             1.00    
     CRITERION FOR ZERO FORCE     REL. TO TIME AVRG. MAX. FORCE        1.000E-05
     CRITERION FOR ZERO DISP.    RELATIVE TO CHARACTERISTIC LENGTH     1.000E-08

     VOLUMETRIC STRAIN COMPATIBILITY TOLERANCE FOR HYBRID SOLIDS       1.000E-05
     AXIAL STRAIN COMPATIBILITY TOLERANCE FOR HYBRID BEAMS             1.000E-05
     TRANS. SHEAR STRAIN COMPATIBILITY TOLERANCE FOR HYBRID BEAMS      1.000E-05
     SOFT CONTACT CONSTRAINT COMPATIBILITY TOLERANCE FOR P>P0          5.000E-03
     SOFT CONTACT CONSTRAINT COMPATIBILITY TOLERANCE FOR P=0.0         0.100    
     CONTACT FORCE ERROR TOLERANCE FOR CONVERT SDI=YES                 1.00    
     DISPLACEMENT COMPATIBILITY TOLERANCE FOR DCOUP ELEMENTS           1.000E-05
     ROTATION COMPATIBILITY TOLERANCE FOR DCOUP ELEMENTS               1.000E-05

 EQUILIBRIUM WILL BE CHECKED FOR SEVERE DISCONTINUITY ITERATIONS

 TIME INCREMENTATION CONTROL PARAMETERS:
     FIRST EQUILIBRIUM ITERATION FOR CONSECUTIVE DIVERGENCE CHECK              4
     EQUILIBRIUM ITERATION AT WHICH LOG. CONVERGENCE RATE CHECK BEGINS         8
     EQUILIBRIUM ITERATION AFTER WHICH ALTERNATE RESIDUAL IS USED              9
     MAXIMUM EQUILIBRIUM ITERATIONS ALLOWED                                   16
     EQUILIBRIUM ITERATION COUNT FOR CUT-BACK IN NEXT INCREMENT               10
     MAXIMUM EQUILIB. ITERS IN TWO INCREMENTS FOR TIME INCREMENT INCREASE      4
     MAXIMUM ITERATIONS FOR SEVERE DISCONTINUITIES                            50
     MAXIMUM ATTEMPTS ALLOWED IN AN INCREMENT                                  5
     MAXIMUM DISCON. ITERS IN TWO INCREMENTS FOR TIME INCREMENT INCREASE      50
     MAXIMUM CONTACT AUGMENTATIONS FOR *SURFACE BEHAVIOR,AUGMENTED LAGRANGE   50
     CUT-BACK FACTOR AFTER DIVERGENCE                                 0.2500    
     CUT-BACK FACTOR FOR TOO SLOW CONVERGENCE                         0.5000    
     CUT-BACK FACTOR AFTER TOO MANY EQUILIBRIUM ITERATIONS            0.7500    
     CUT-BACK FACTOR AFTER TOO MANY SEVERE DISCONTINUITY ITERATIONS   0.2500    
     CUT-BACK FACTOR AFTER PROBLEMS IN ELEMENT ASSEMBLY               0.2500    
     INCREASE FACTOR AFTER TWO INCREMENTS THAT CONVERGE QUICKLY        1.500    
     MAX. TIME INCREMENT INCREASE FACTOR ALLOWED                       1.500    
     MAX. TIME INCREMENT INCREASE FACTOR ALLOWED (DYNAMICS)            1.250    
     MAX. TIME INCREMENT INCREASE FACTOR ALLOWED (DIFFUSION)           2.000    
     MINIMUM TIME INCREMENT RATIO FOR EXTRAPOLATION TO OCCUR          0.1000    
     MAX. RATIO OF TIME INCREMENT TO STABILITY LIMIT                   1.000    
     FRACTION OF STABILITY LIMIT FOR NEW TIME INCREMENT               0.9500    
     TIME INCREMENT INCREASE FACTOR BEFORE A TIME POINT                1.000    
     GLOBAL STABILIZATION CONTROL IS NOT USED

          PRINT OF INCREMENT NUMBER, TIME, ETC., EVERY    1  INCREMENTS

     THE MAXIMUM NUMBER OF INCREMENTS IN THIS STEP IS                   10000

     LINEAR EXTRAPOLATION WILL BE USED

     CHARACTERISTIC ELEMENT LENGTH      2.00    

     DETAILS REGARDING ACTUAL SOLUTION WAVEFRONT REQUESTED

     DETAILED OUTPUT OF DIAGNOSTICS TO DATABASE REQUESTED

     PRINT OF INCREMENT NUMBER, TIME, ETC., TO THE MESSAGE FILE EVERY     1  INCREMENTS

     ELEMENT OPERATIONS WILL BE CARRIED OUT IN PARALLEL USING   4 THREADS ON 1 DOMAIN

     PARALLEL CONTACT TRACKING ENABLED


     COLLECTING MODEL CONSTRAINT INFORMATION FOR OVERCONSTRAINT CHECKS

     COLLECTING STEP CONSTRAINT INFORMATION FOR OVERCONSTRAINT CHECKS


  INCREMENT     1 STARTS. ATTEMPT NUMBER  1, TIME INCREMENT  2.000E-02
 
     INITIAL ELEMENT LOAD BALANCE
            DOMAIN    1     THREAD    NUMBER OF ELEMENTS
                              1            184
                              2            520
                              3            288
                              4            258
 
	SYMMETRIC NEW DIRECT SPARSE SOLVER RUNNING ON
 	1 HOST x 1 MPI RANK PER HOST x 4 THREADS PER RANK
        NUMBER OF EQUATIONS:  2672
        NUMBER OF RHS:        1
        NUMBER OF FLOPS:      6.652e+06
        SOLVER ELAPSED TIME:  158ms

               CONVERGENCE CHECKS FOR EQUILIBRIUM ITERATION     1


 AVERAGE FORCE                      0.317       TIME AVG. FORCE       0.317    
 LARGEST SCALED RESIDUAL FORCE      8.316E-14   AT NODE       1260   DOF  2
   INSTANCE: PLATE-1                                                                         
  CORRESPONDING RESIDUAL FORCE      8.316E-14
 LARGEST INCREMENT OF DISP.         1.957E-02   AT NODE       1302   DOF  2
   INSTANCE: PLATE-1                                                                         
 LARGEST CORRECTION TO DISP.        1.957E-02   AT NODE       1302   DOF  2
   INSTANCE: PLATE-1                                                                         
          THE FORCE     EQUILIBRIUM RESPONSE WAS LINEAR IN THIS INCREMENT

 ITERATION SUMMARY FOR THE INCREMENT:   1 TOTAL ITERATIONS, OF WHICH
   0 ARE SEVERE DISCONTINUITY ITERATIONS AND  1 ARE EQUILIBRIUM ITERATIONS.

 TIME INCREMENT COMPLETED  2.000E-02,  FRACTION OF STEP COMPLETED  2.000E-02
 STEP TIME COMPLETED       2.000E-02,  TOTAL TIME COMPLETED        2.000E-02


  INCREMENT     2 STARTS. ATTEMPT NUMBER  1, TIME INCREMENT  2.000E-02
 
	SYMMETRIC NEW DIRECT SPARSE SOLVER RUNNING ON
 	1 HOST x 1 MPI RANK PER HOST x 4 THREADS PER RANK
        NUMBER OF EQUATIONS:  2672
        NUMBER OF RHS:        1
        NUMBER OF FLOPS:      6.652e+06
        SOLVER ELAPSED TIME:  1ms

               CONVERGENCE CHECKS FOR EQUILIBRIUM ITERATION     1


 AVERAGE FORCE                       1.31       TIME AVG. FORCE       0.812    
 LARGEST SCALED RESIDUAL FORCE      3.753E-14   AT NODE       1121   DOF  2
   INSTANCE: PLATE-1                                                                         
  CORRESPONDING RESIDUAL FORCE      3.753E-14
 LARGEST INCREMENT OF DISP.         1.957E-02   AT NODE       1302   DOF  2
   INSTANCE: PLATE-1                                                                         
 LARGEST CORRECTION TO DISP.       -1.608E-16   AT NODE       1253   DOF  2
   INSTANCE: PLATE-1                                                                         
          THE FORCE     EQUILIBRIUM RESPONSE WAS LINEAR IN THIS INCREMENT
          TIME INCREMENT MAY NOW INCREASE TO    3.000E-02

 ITERATION SUMMARY FOR THE INCREMENT:   1 TOTAL ITERATIONS, OF WHICH
   0 ARE SEVERE DISCONTINUITY ITERATIONS AND  1 ARE EQUILIBRIUM ITERATIONS.

 TIME INCREMENT COMPLETED  2.000E-02,  FRACTION OF STEP COMPLETED  4.000E-02
 STEP TIME COMPLETED       4.000E-02,  TOTAL TIME COMPLETED        4.000E-02


  INCREMENT     3 STARTS. ATTEMPT NUMBER  1, TIME INCREMENT  3.000E-02
 
	SYMMETRIC NEW DIRECT SPARSE SOLVER RUNNING ON
 	1 HOST x 1 MPI RANK PER HOST x 4 THREADS PER RANK
        NUMBER OF EQUATIONS:  2672
        NUMBER OF RHS:        1
        NUMBER OF FLOPS:      6.652e+06
        SOLVER ELAPSED TIME:  1ms

               CONVERGENCE CHECKS FOR EQUILIBRIUM ITERATION     1


 AVERAGE FORCE                       2.29       TIME AVG. FORCE        1.30    
 LARGEST SCALED RESIDUAL FORCE     -3.952E-14   AT NODE        882   DOF  2
   INSTANCE: PLATE-1                                                                         
  CORRESPONDING RESIDUAL FORCE     -3.952E-14
 LARGEST INCREMENT OF DISP.         2.936E-02   AT NODE       1302   DOF  2
   INSTANCE: PLATE-1                                                                         
 LARGEST CORRECTION TO DISP.        1.279E-16   AT NODE       1253   DOF  2
   INSTANCE: PLATE-1                                                                         
          THE FORCE     EQUILIBRIUM RESPONSE WAS LINEAR IN THIS INCREMENT
          TIME INCREMENT MAY NOW INCREASE TO    4.500E-02

 ITERATION SUMMARY FOR THE INCREMENT:   1 TOTAL ITERATIONS, OF WHICH
   0 ARE SEVERE DISCONTINUITY ITERATIONS AND  1 ARE EQUILIBRIUM ITERATIONS.

 TIME INCREMENT COMPLETED  3.000E-02,  FRACTION OF STEP COMPLETED  7.000E-02
 STEP TIME COMPLETED       7.000E-02,  TOTAL TIME COMPLETED        7.000E-02


  INCREMENT     4 STARTS. ATTEMPT NUMBER  1, TIME INCREMENT  4.500E-02
 
	SYMMETRIC NEW DIRECT SPARSE SOLVER RUNNING ON
 	1 HOST x 1 MPI RANK PER HOST x 4 THREADS PER RANK
        NUMBER OF EQUATIONS:  2672
        NUMBER OF RHS:        1
        NUMBER OF FLOPS:      6.652e+06
        SOLVER ELAPSED TIME:  1ms

               CONVERGENCE CHECKS FOR EQUILIBRIUM ITERATION     1


 AVERAGE FORCE                       3.76       TIME AVG. FORCE        1.92    
 LARGEST SCALED RESIDUAL FORCE      7.816E-14   AT NODE       1169   DOF  2
   INSTANCE: PLATE-1                                                                         
  CORRESPONDING RESIDUAL FORCE      7.816E-14
 LARGEST INCREMENT OF DISP.         4.404E-02   AT NODE       1302   DOF  2
   INSTANCE: PLATE-1                                                                         
 LARGEST CORRECTION TO DISP.       -3.623E-17   AT NODE       1207   DOF  2
   INSTANCE: PLATE-1                                                                         
          THE FORCE     EQUILIBRIUM RESPONSE WAS LINEAR IN THIS INCREMENT
          TIME INCREMENT MAY NOW INCREASE TO    6.750E-02

 ITERATION SUMMARY FOR THE INCREMENT:   1 TOTAL ITERATIONS, OF WHICH
   0 ARE SEVERE DISCONTINUITY ITERATIONS AND  1 ARE EQUILIBRIUM ITERATIONS.

 TIME INCREMENT COMPLETED  4.500E-02,  FRACTION OF STEP COMPLETED  0.115    
 STEP TIME COMPLETED       0.115    ,  TOTAL TIME COMPLETED        0.115    


  INCREMENT     5 STARTS. ATTEMPT NUMBER  1, TIME INCREMENT  6.750E-02
 
	SYMMETRIC NEW DIRECT SPARSE SOLVER RUNNING ON
 	1 HOST x 1 MPI RANK PER HOST x 4 THREADS PER RANK
        NUMBER OF EQUATIONS:  2672
        NUMBER OF RHS:        1
        NUMBER OF FLOPS:      6.652e+06
        SOLVER ELAPSED TIME:  1ms

               CONVERGENCE CHECKS FOR EQUILIBRIUM ITERATION     1


 AVERAGE FORCE                       5.96       TIME AVG. FORCE        2.73    
 LARGEST SCALED RESIDUAL FORCE      1.155E-13   AT NODE       1297   DOF  2
   INSTANCE: PLATE-1                                                                         
  CORRESPONDING RESIDUAL FORCE      1.155E-13
 LARGEST INCREMENT OF DISP.         6.606E-02   AT NODE       1302   DOF  2
   INSTANCE: PLATE-1                                                                         
 LARGEST CORRECTION TO DISP.       -6.838E-17   AT NODE       1222   DOF  2
   INSTANCE: PLATE-1                                                                         
          THE FORCE     EQUILIBRIUM RESPONSE WAS LINEAR IN THIS INCREMENT
          TIME INCREMENT MAY NOW INCREASE TO    0.101    

 ITERATION SUMMARY FOR THE INCREMENT:   1 TOTAL ITERATIONS, OF WHICH
   0 ARE SEVERE DISCONTINUITY ITERATIONS AND  1 ARE EQUILIBRIUM ITERATIONS.

 TIME INCREMENT COMPLETED  6.750E-02,  FRACTION OF STEP COMPLETED  0.182    
 STEP TIME COMPLETED       0.182    ,  TOTAL TIME COMPLETED        0.182    


  INCREMENT     6 STARTS. ATTEMPT NUMBER  1, TIME INCREMENT  0.101    
 
	SYMMETRIC NEW DIRECT SPARSE SOLVER RUNNING ON
 	1 HOST x 1 MPI RANK PER HOST x 4 THREADS PER RANK
        NUMBER OF EQUATIONS:  2672
        NUMBER OF RHS:        1
        NUMBER OF FLOPS:      6.652e+06
        SOLVER ELAPSED TIME:  1ms

               CONVERGENCE CHECKS FOR EQUILIBRIUM ITERATION     1


 AVERAGE FORCE                       9.27       TIME AVG. FORCE        3.82    
 LARGEST SCALED RESIDUAL FORCE     -1.608E-13   AT NODE        705   DOF  2
   INSTANCE: PLATE-1                                                                         
  CORRESPONDING RESIDUAL FORCE     -1.608E-13
 LARGEST INCREMENT OF DISP.         9.908E-02   AT NODE       1302   DOF  2
   INSTANCE: PLATE-1                                                                         
 LARGEST CORRECTION TO DISP.        6.461E-17   AT NODE       1325   DOF  2
   INSTANCE: PLATE-1                                                                         
          THE FORCE     EQUILIBRIUM RESPONSE WAS LINEAR IN THIS INCREMENT
          TIME INCREMENT MAY NOW INCREASE TO    0.152    

 ITERATION SUMMARY FOR THE INCREMENT:   1 TOTAL ITERATIONS, OF WHICH
   0 ARE SEVERE DISCONTINUITY ITERATIONS AND  1 ARE EQUILIBRIUM ITERATIONS.

 TIME INCREMENT COMPLETED  0.101    ,  FRACTION OF STEP COMPLETED  0.284    
 STEP TIME COMPLETED       0.284    ,  TOTAL TIME COMPLETED        0.284    


  INCREMENT     7 STARTS. ATTEMPT NUMBER  1, TIME INCREMENT  0.152    
 
	SYMMETRIC NEW DIRECT SPARSE SOLVER RUNNING ON
 	1 HOST x 1 MPI RANK PER HOST x 4 THREADS PER RANK
        NUMBER OF EQUATIONS:  2672
        NUMBER OF RHS:        1
        NUMBER OF FLOPS:      6.652e+06
        SOLVER ELAPSED TIME:  1ms

               CONVERGENCE CHECKS FOR EQUILIBRIUM ITERATION     1


 AVERAGE FORCE                       14.2       TIME AVG. FORCE        5.30    
 LARGEST SCALED RESIDUAL FORCE      2.949E-13   AT NODE       1207   DOF  2
   INSTANCE: PLATE-1                                                                         
  CORRESPONDING RESIDUAL FORCE      2.949E-13
 LARGEST INCREMENT OF DISP.         0.149       AT NODE       1302   DOF  2
   INSTANCE: PLATE-1                                                                         
 LARGEST CORRECTION TO DISP.        1.217E-16   AT NODE       1159   DOF  2
   INSTANCE: PLATE-1                                                                         
          THE FORCE     EQUILIBRIUM RESPONSE WAS LINEAR IN THIS INCREMENT
          TIME INCREMENT MAY NOW INCREASE TO    0.228    

 ITERATION SUMMARY FOR THE INCREMENT:   1 TOTAL ITERATIONS, OF WHICH
   0 ARE SEVERE DISCONTINUITY ITERATIONS AND  1 ARE EQUILIBRIUM ITERATIONS.

 TIME INCREMENT COMPLETED  0.152    ,  FRACTION OF STEP COMPLETED  0.436    
 STEP TIME COMPLETED       0.436    ,  TOTAL TIME COMPLETED        0.436    


  INCREMENT     8 STARTS. ATTEMPT NUMBER  1, TIME INCREMENT  0.228    

 ***NOTE: THE FRACTURE CRITERION f=1.4175 AT ELEMENT 606, THE DAMAGE INITIATION 
          TOLERANCE HAS BEEN EXCEEDED AND CUTBACK IS REQUIRED.
 
	SYMMETRIC NEW DIRECT SPARSE SOLVER RUNNING ON
 	1 HOST x 1 MPI RANK PER HOST x 4 THREADS PER RANK
        NUMBER OF EQUATIONS:  2672
        NUMBER OF RHS:        1
        NUMBER OF FLOPS:      6.652e+06
        SOLVER ELAPSED TIME:  1ms

 ***NOTE: THE FRACTURE CRITERION f=1.4175 AT ELEMENT 606, THE DAMAGE INITIATION 
          TOLERANCE HAS BEEN EXCEEDED AND CUTBACK IS REQUIRED.


  INCREMENT     8 STARTS. ATTEMPT NUMBER  2, TIME INCREMENT  0.161    

 ***NOTE: THE FRACTURE CRITERION f=1.2742 AT ELEMENT 606, THE DAMAGE INITIATION 
          TOLERANCE HAS BEEN EXCEEDED AND CUTBACK IS REQUIRED.
 
	SYMMETRIC NEW DIRECT SPARSE SOLVER RUNNING ON
 	1 HOST x 1 MPI RANK PER HOST x 4 THREADS PER RANK
        NUMBER OF EQUATIONS:  2672
        NUMBER OF RHS:        1
        NUMBER OF FLOPS:      6.652e+06
        SOLVER ELAPSED TIME:  2ms

 ***NOTE: THE FRACTURE CRITERION f=1.2742 AT ELEMENT 606, THE DAMAGE INITIATION 
          TOLERANCE HAS BEEN EXCEEDED AND CUTBACK IS REQUIRED.


  INCREMENT     8 STARTS. ATTEMPT NUMBER  3, TIME INCREMENT  6.306E-02

 ***NOTE: THE FRACTURE CRITERION f=1.0655 AT ELEMENT 606, THE DAMAGE INITIATION 
          TOLERANCE HAS BEEN EXCEEDED AND CUTBACK IS REQUIRED.
 
	SYMMETRIC NEW DIRECT SPARSE SOLVER RUNNING ON
 	1 HOST x 1 MPI RANK PER HOST x 4 THREADS PER RANK
        NUMBER OF EQUATIONS:  2672
        NUMBER OF RHS:        1
        NUMBER OF FLOPS:      6.652e+06
        SOLVER ELAPSED TIME:  2ms

 ***NOTE: THE FRACTURE CRITERION f=1.0655 AT ELEMENT 606, THE DAMAGE INITIATION 
          TOLERANCE HAS BEEN EXCEEDED AND CUTBACK IS REQUIRED.


  INCREMENT     8 STARTS. ATTEMPT NUMBER  4, TIME INCREMENT  1.973E-02
 
	SYMMETRIC NEW DIRECT SPARSE SOLVER RUNNING ON
 	1 HOST x 1 MPI RANK PER HOST x 4 THREADS PER RANK
        NUMBER OF EQUATIONS:  2672
        NUMBER OF RHS:        1
        NUMBER OF FLOPS:      6.652e+06
        SOLVER ELAPSED TIME:  2ms

               CONVERGENCE CHECKS FOR EQUILIBRIUM ITERATION     1


 AVERAGE FORCE                       14.9       TIME AVG. FORCE        6.50    
 LARGEST SCALED RESIDUAL FORCE      3.553E-14   AT NODE       1137   DOF  2
   INSTANCE: PLATE-1                                                                         
  CORRESPONDING RESIDUAL FORCE      3.553E-14
 LARGEST INCREMENT OF DISP.         1.931E-02   AT NODE       1302   DOF  2
   INSTANCE: PLATE-1                                                                         
 LARGEST CORRECTION TO DISP.       -7.346E-17   AT NODE       1230   DOF  2
   INSTANCE: PLATE-1                                                                         
          THE FORCE     EQUILIBRIUM RESPONSE WAS LINEAR IN THIS INCREMENT
          TIME INCREMENT MAY NOW INCREASE TO    2.959E-02

 ITERATION SUMMARY FOR THE INCREMENT:   1 TOTAL ITERATIONS, OF WHICH
   0 ARE SEVERE DISCONTINUITY ITERATIONS AND  1 ARE EQUILIBRIUM ITERATIONS.

 TIME INCREMENT COMPLETED  1.973E-02,  FRACTION OF STEP COMPLETED  0.455    
 STEP TIME COMPLETED       0.455    ,  TOTAL TIME COMPLETED        0.455    


  INCREMENT     9 STARTS. ATTEMPT NUMBER  1, TIME INCREMENT  2.959E-02
 
	SYMMETRIC NEW DIRECT SPARSE SOLVER RUNNING ON
 	1 HOST x 1 MPI RANK PER HOST x 4 THREADS PER RANK
        NUMBER OF EQUATIONS:  2672
        NUMBER OF RHS:        1
        NUMBER OF FLOPS:      6.652e+06
        SOLVER ELAPSED TIME:  1ms

               CONVERGENCE CHECKS FOR EQUILIBRIUM ITERATION     1


 AVERAGE FORCE                       15.8       TIME AVG. FORCE        7.54    
 LARGEST SCALED RESIDUAL FORCE      5.684E-14   AT NODE        969   DOF  2
   INSTANCE: PLATE-1                                                                         
  CORRESPONDING RESIDUAL FORCE      5.684E-14
 LARGEST INCREMENT OF DISP.         2.896E-02   AT NODE       1302   DOF  2
   INSTANCE: PLATE-1                                                                         
 LARGEST CORRECTION TO DISP.        1.604E-16   AT NODE       1230   DOF  2
   INSTANCE: PLATE-1                                                                         
          THE FORCE     EQUILIBRIUM RESPONSE WAS LINEAR IN THIS INCREMENT
          TIME INCREMENT MAY NOW INCREASE TO    4.439E-02

 ITERATION SUMMARY FOR THE INCREMENT:   1 TOTAL ITERATIONS, OF WHICH
   0 ARE SEVERE DISCONTINUITY ITERATIONS AND  1 ARE EQUILIBRIUM ITERATIONS.

 TIME INCREMENT COMPLETED  2.959E-02,  FRACTION OF STEP COMPLETED  0.485    
 STEP TIME COMPLETED       0.485    ,  TOTAL TIME COMPLETED        0.485    


  INCREMENT    10 STARTS. ATTEMPT NUMBER  1, TIME INCREMENT  4.439E-02
 
	SYMMETRIC NEW DIRECT SPARSE SOLVER RUNNING ON
 	1 HOST x 1 MPI RANK PER HOST x 4 THREADS PER RANK
        NUMBER OF EQUATIONS:  2676
        NUMBER OF RHS:        1
        NUMBER OF FLOPS:      6.779e+06
        SOLVER ELAPSED TIME:  2ms

               CONVERGENCE CHECKS FOR EQUILIBRIUM ITERATION     1


 AVERAGE FORCE                       17.3       TIME AVG. FORCE        8.51    
 LARGEST SCALED RESIDUAL FORCE      0.698       AT NODE        656   DOF  2
   INSTANCE: PLATE-1                                                                         
  CORRESPONDING RESIDUAL FORCE      0.698    
 LARGEST INCREMENT OF DISP.         5.624E-02   AT NODE        656   DOF  2
   INSTANCE: PLATE-1                                                                         
 LARGEST CORRECTION TO DISP.        3.469E-02   AT NODE        656   DOF  2
   INSTANCE: PLATE-1                                                                         
          FORCE     EQUILIBRIUM NOT ACHIEVED WITHIN TOLERANCE.
 
	SYMMETRIC NEW DIRECT SPARSE SOLVER RUNNING ON
 	1 HOST x 1 MPI RANK PER HOST x 4 THREADS PER RANK
        NUMBER OF EQUATIONS:  2676
        NUMBER OF RHS:        1
        NUMBER OF FLOPS:      6.779e+06
        SOLVER ELAPSED TIME:  2ms

               CONVERGENCE CHECKS FOR EQUILIBRIUM ITERATION     2


 AVERAGE FORCE                       17.3       TIME AVG. FORCE        8.51    
 LARGEST SCALED RESIDUAL FORCE      7.130E-03   AT NODE        656   DOF  2
   INSTANCE: PLATE-1                                                                         
  CORRESPONDING RESIDUAL FORCE      7.130E-03
 LARGEST INCREMENT OF DISP.         5.657E-02   AT NODE        656   DOF  2
   INSTANCE: PLATE-1                                                                         
 LARGEST CORRECTION TO DISP.        3.279E-04   AT NODE        656   DOF  2
   INSTANCE: PLATE-1                                                                         
          THE FORCE     EQUILIBRIUM EQUATIONS HAVE CONVERGED
          TIME INCREMENT MAY NOW INCREASE TO    6.658E-02

 ITERATION SUMMARY FOR THE INCREMENT:   2 TOTAL ITERATIONS, OF WHICH
   0 ARE SEVERE DISCONTINUITY ITERATIONS AND  2 ARE EQUILIBRIUM ITERATIONS.

 TIME INCREMENT COMPLETED  4.439E-02,  FRACTION OF STEP COMPLETED  0.529    
 STEP TIME COMPLETED       0.529    ,  TOTAL TIME COMPLETED        0.529    


  INCREMENT    11 STARTS. ATTEMPT NUMBER  1, TIME INCREMENT  6.658E-02

 ***NOTE: THE FRACTURE CRITERION f=1.3976 AT ELEMENT 607, THE DAMAGE INITIATION 
          TOLERANCE HAS BEEN EXCEEDED AND CUTBACK IS REQUIRED.
 
	SYMMETRIC NEW DIRECT SPARSE SOLVER RUNNING ON
 	1 HOST x 1 MPI RANK PER HOST x 4 THREADS PER RANK
        NUMBER OF EQUATIONS:  2676
        NUMBER OF RHS:        1
        NUMBER OF FLOPS:      6.779e+06
        SOLVER ELAPSED TIME:  2ms

 ***NOTE: THE FRACTURE CRITERION f=1.0620 AT ELEMENT 607, THE DAMAGE INITIATION 
          TOLERANCE HAS BEEN EXCEEDED AND CUTBACK IS REQUIRED.


  INCREMENT    11 STARTS. ATTEMPT NUMBER  2, TIME INCREMENT  6.270E-02

 ***NOTE: THE FRACTURE CRITERION f=1.3684 AT ELEMENT 607, THE DAMAGE INITIATION 
          TOLERANCE HAS BEEN EXCEEDED AND CUTBACK IS REQUIRED.
 
	SYMMETRIC NEW DIRECT SPARSE SOLVER RUNNING ON
 	1 HOST x 1 MPI RANK PER HOST x 4 THREADS PER RANK
        NUMBER OF EQUATIONS:  2676
        NUMBER OF RHS:        1
        NUMBER OF FLOPS:      6.779e+06
        SOLVER ELAPSED TIME:  2ms

 ***NOTE: THE FRACTURE CRITERION f=1.0527 AT ELEMENT 607, THE DAMAGE INITIATION 
          TOLERANCE HAS BEEN EXCEEDED AND CUTBACK IS REQUIRED.


  INCREMENT    11 STARTS. ATTEMPT NUMBER  3, TIME INCREMENT  2.978E-02

 ***NOTE: THE FRACTURE CRITERION f=1.1221 AT ELEMENT 607, THE DAMAGE INITIATION 
          TOLERANCE HAS BEEN EXCEEDED AND CUTBACK IS REQUIRED.
 
	SYMMETRIC NEW DIRECT SPARSE SOLVER RUNNING ON
 	1 HOST x 1 MPI RANK PER HOST x 4 THREADS PER RANK
        NUMBER OF EQUATIONS:  2676
        NUMBER OF RHS:        1
        NUMBER OF FLOPS:      6.779e+06
        SOLVER ELAPSED TIME:  2ms

               CONVERGENCE CHECKS FOR EQUILIBRIUM ITERATION     1


 AVERAGE FORCE                       18.3       TIME AVG. FORCE        9.40    
 LARGEST SCALED RESIDUAL FORCE     -2.657E-02   AT NODE        656   DOF  2
   INSTANCE: PLATE-1                                                                         
  CORRESPONDING RESIDUAL FORCE     -2.657E-02
 LARGEST INCREMENT OF DISP.         3.016E-02   AT NODE       1301   DOF  2
   INSTANCE: PLATE-1                                                                         
 LARGEST CORRECTION TO DISP.       -1.884E-02   AT NODE        656   DOF  2
   INSTANCE: PLATE-1                                                                         
 ESTIMATE OF DISP.    CORRECTION   -2.375E-05
 FORCE     EQUILIB. ACCEPTED BASED ON SMALL RESIDUAL AND ESTIMATED CORRECTION
          TIME INCREMENT MAY NOW INCREASE TO    4.467E-02

 ITERATION SUMMARY FOR THE INCREMENT:   1 TOTAL ITERATIONS, OF WHICH
   0 ARE SEVERE DISCONTINUITY ITERATIONS AND  1 ARE EQUILIBRIUM ITERATIONS.

 TIME INCREMENT COMPLETED  2.978E-02,  FRACTION OF STEP COMPLETED  0.559    
 STEP TIME COMPLETED       0.559    ,  TOTAL TIME COMPLETED        0.559    


  INCREMENT    12 STARTS. ATTEMPT NUMBER  1, TIME INCREMENT  4.467E-02

 ***NOTE: THE FRACTURE CRITERION f=1.0806 AT ELEMENT 607, THE DAMAGE INITIATION 
          TOLERANCE HAS BEEN EXCEEDED AND CUTBACK IS REQUIRED.
 
	SYMMETRIC NEW DIRECT SPARSE SOLVER RUNNING ON
 	1 HOST x 1 MPI RANK PER HOST x 4 THREADS PER RANK
        NUMBER OF EQUATIONS:  2676
        NUMBER OF RHS:        1
        NUMBER OF FLOPS:      6.779e+06
        SOLVER ELAPSED TIME:  2ms

 ***NOTE: THE FRACTURE CRITERION f=1.0804 AT ELEMENT 607, THE DAMAGE INITIATION 
          TOLERANCE HAS BEEN EXCEEDED AND CUTBACK IS REQUIRED.


  INCREMENT    12 STARTS. ATTEMPT NUMBER  2, TIME INCREMENT  4.135E-02

 ***NOTE: THE FRACTURE CRITERION f=1.0726 AT ELEMENT 607, THE DAMAGE INITIATION 
          TOLERANCE HAS BEEN EXCEEDED AND CUTBACK IS REQUIRED.
 
	SYMMETRIC NEW DIRECT SPARSE SOLVER RUNNING ON
 	1 HOST x 1 MPI RANK PER HOST x 4 THREADS PER RANK
        NUMBER OF EQUATIONS:  2676
        NUMBER OF RHS:        1
        NUMBER OF FLOPS:      6.779e+06
        SOLVER ELAPSED TIME:  2ms

 ***NOTE: THE FRACTURE CRITERION f=1.0724 AT ELEMENT 607, THE DAMAGE INITIATION 
          TOLERANCE HAS BEEN EXCEEDED AND CUTBACK IS REQUIRED.


  INCREMENT    12 STARTS. ATTEMPT NUMBER  3, TIME INCREMENT  1.928E-02
 
	SYMMETRIC NEW DIRECT SPARSE SOLVER RUNNING ON
 	1 HOST x 1 MPI RANK PER HOST x 4 THREADS PER RANK
        NUMBER OF EQUATIONS:  2676
        NUMBER OF RHS:        1
        NUMBER OF FLOPS:      6.779e+06
        SOLVER ELAPSED TIME:  2ms

               CONVERGENCE CHECKS FOR EQUILIBRIUM ITERATION     1


 AVERAGE FORCE                       18.9       TIME AVG. FORCE        10.2    
 LARGEST SCALED RESIDUAL FORCE      1.635E-05   AT NODE        656   DOF  2
   INSTANCE: PLATE-1                                                                         
  CORRESPONDING RESIDUAL FORCE      1.635E-05
 LARGEST INCREMENT OF DISP.         1.952E-02   AT NODE       1301   DOF  2
   INSTANCE: PLATE-1                                                                         
 LARGEST CORRECTION TO DISP.       -1.818E-05   AT NODE        656   DOF  2
   INSTANCE: PLATE-1                                                                         
          THE FORCE     EQUILIBRIUM EQUATIONS HAVE CONVERGED
          TIME INCREMENT MAY NOW INCREASE TO    2.892E-02

 ITERATION SUMMARY FOR THE INCREMENT:   1 TOTAL ITERATIONS, OF WHICH
   0 ARE SEVERE DISCONTINUITY ITERATIONS AND  1 ARE EQUILIBRIUM ITERATIONS.

 TIME INCREMENT COMPLETED  1.928E-02,  FRACTION OF STEP COMPLETED  0.578    
 STEP TIME COMPLETED       0.578    ,  TOTAL TIME COMPLETED        0.578    


  INCREMENT    13 STARTS. ATTEMPT NUMBER  1, TIME INCREMENT  2.892E-02
 
	SYMMETRIC NEW DIRECT SPARSE SOLVER RUNNING ON
 	1 HOST x 1 MPI RANK PER HOST x 4 THREADS PER RANK
        NUMBER OF EQUATIONS:  2680
        NUMBER OF RHS:        1
        NUMBER OF FLOPS:      6.902e+06
        SOLVER ELAPSED TIME:  2ms

               CONVERGENCE CHECKS FOR EQUILIBRIUM ITERATION     1


 AVERAGE FORCE                       19.8       TIME AVG. FORCE        10.9    
 LARGEST SCALED RESIDUAL FORCE       2.70       AT NODE        657   DOF  2
   INSTANCE: PLATE-1                                                                         
  CORRESPONDING RESIDUAL FORCE       2.70    
 LARGEST INCREMENT OF DISP.         3.353E-02   AT NODE       1302   DOF  2
   INSTANCE: PLATE-1                                                                         
 LARGEST CORRECTION TO DISP.        1.486E-02   AT NODE        657   DOF  2
   INSTANCE: PLATE-1                                                                         
          FORCE     EQUILIBRIUM NOT ACHIEVED WITHIN TOLERANCE.
 
	SYMMETRIC NEW DIRECT SPARSE SOLVER RUNNING ON
 	1 HOST x 1 MPI RANK PER HOST x 4 THREADS PER RANK
        NUMBER OF EQUATIONS:  2680
        NUMBER OF RHS:        1
        NUMBER OF FLOPS:      6.902e+06
        SOLVER ELAPSED TIME:  2ms

               CONVERGENCE CHECKS FOR EQUILIBRIUM ITERATION     2


 AVERAGE FORCE                       19.9       TIME AVG. FORCE        10.9    
 LARGEST SCALED RESIDUAL FORCE     -3.222E-02   AT NODE        657   DOF  2
   INSTANCE: PLATE-1                                                                         
  CORRESPONDING RESIDUAL FORCE     -3.222E-02
 LARGEST INCREMENT OF DISP.         3.428E-02   AT NODE       1302   DOF  2
   INSTANCE: PLATE-1                                                                         
 LARGEST CORRECTION TO DISP.        2.617E-03   AT NODE        657   DOF  2
   INSTANCE: PLATE-1                                                                         
 ESTIMATE OF DISP.    CORRECTION   -3.119E-05
 FORCE     EQUILIB. ACCEPTED BASED ON SMALL RESIDUAL AND ESTIMATED CORRECTION
          TIME INCREMENT MAY NOW INCREASE TO    4.338E-02

 ITERATION SUMMARY FOR THE INCREMENT:   2 TOTAL ITERATIONS, OF WHICH
   0 ARE SEVERE DISCONTINUITY ITERATIONS AND  2 ARE EQUILIBRIUM ITERATIONS.

 TIME INCREMENT COMPLETED  2.892E-02,  FRACTION OF STEP COMPLETED  0.607    
 STEP TIME COMPLETED       0.607    ,  TOTAL TIME COMPLETED        0.607    


  INCREMENT    14 STARTS. ATTEMPT NUMBER  1, TIME INCREMENT  4.338E-02

 ***NOTE: THE FRACTURE CRITERION f=1.1041 AT ELEMENT 608, THE DAMAGE INITIATION 
          TOLERANCE HAS BEEN EXCEEDED AND CUTBACK IS REQUIRED.
 
	SYMMETRIC NEW DIRECT SPARSE SOLVER RUNNING ON
 	1 HOST x 1 MPI RANK PER HOST x 4 THREADS PER RANK
        NUMBER OF EQUATIONS:  2680
        NUMBER OF RHS:        1
        NUMBER OF FLOPS:      6.902e+06
        SOLVER ELAPSED TIME:  2ms

               CONVERGENCE CHECKS FOR EQUILIBRIUM ITERATION     1


 AVERAGE FORCE                       21.3       TIME AVG. FORCE        11.7    
 LARGEST SCALED RESIDUAL FORCE     -0.121       AT NODE        657   DOF  2
   INSTANCE: PLATE-1                                                                         
  CORRESPONDING RESIDUAL FORCE     -0.121    
 LARGEST INCREMENT OF DISP.         4.598E-02   AT NODE       1302   DOF  2
   INSTANCE: PLATE-1                                                                         
 LARGEST CORRECTION TO DISP.       -1.890E-02   AT NODE        657   DOF  2
   INSTANCE: PLATE-1                                                                         
          FORCE     EQUILIBRIUM NOT ACHIEVED WITHIN TOLERANCE.
 
	SYMMETRIC NEW DIRECT SPARSE SOLVER RUNNING ON
 	1 HOST x 1 MPI RANK PER HOST x 4 THREADS PER RANK
        NUMBER OF EQUATIONS:  2680
        NUMBER OF RHS:        1
        NUMBER OF FLOPS:      6.902e+06
        SOLVER ELAPSED TIME:  2ms

               CONVERGENCE CHECKS FOR EQUILIBRIUM ITERATION     2


 AVERAGE FORCE                       21.3       TIME AVG. FORCE        11.7    
 LARGEST SCALED RESIDUAL FORCE      8.905E-04   AT NODE        657   DOF  2
   INSTANCE: PLATE-1                                                                         
  CORRESPONDING RESIDUAL FORCE      8.905E-04
 LARGEST INCREMENT OF DISP.         4.597E-02   AT NODE       1302   DOF  2
   INSTANCE: PLATE-1                                                                         
 LARGEST CORRECTION TO DISP.       -4.469E-05   AT NODE        657   DOF  2
   INSTANCE: PLATE-1                                                                         
          THE FORCE     EQUILIBRIUM EQUATIONS HAVE CONVERGED
          TIME INCREMENT MAY NOW INCREASE TO    6.506E-02

 ITERATION SUMMARY FOR THE INCREMENT:   2 TOTAL ITERATIONS, OF WHICH
   0 ARE SEVERE DISCONTINUITY ITERATIONS AND  2 ARE EQUILIBRIUM ITERATIONS.

 TIME INCREMENT COMPLETED  4.338E-02,  FRACTION OF STEP COMPLETED  0.651    
 STEP TIME COMPLETED       0.651    ,  TOTAL TIME COMPLETED        0.651    


  INCREMENT    15 STARTS. ATTEMPT NUMBER  1, TIME INCREMENT  6.506E-02

 ***NOTE: THE FRACTURE CRITERION f=1.1558 AT ELEMENT 608, THE DAMAGE INITIATION 
          TOLERANCE HAS BEEN EXCEEDED AND CUTBACK IS REQUIRED.
 
	SYMMETRIC NEW DIRECT SPARSE SOLVER RUNNING ON
 	1 HOST x 1 MPI RANK PER HOST x 4 THREADS PER RANK
        NUMBER OF EQUATIONS:  2680
        NUMBER OF RHS:        1
        NUMBER OF FLOPS:      6.902e+06
        SOLVER ELAPSED TIME:  2ms

 ***NOTE: THE FRACTURE CRITERION f=1.1572 AT ELEMENT 608, THE DAMAGE INITIATION 
          TOLERANCE HAS BEEN EXCEEDED AND CUTBACK IS REQUIRED.


  INCREMENT    15 STARTS. ATTEMPT NUMBER  2, TIME INCREMENT  5.622E-02

 ***NOTE: THE FRACTURE CRITERION f=1.1326 AT ELEMENT 608, THE DAMAGE INITIATION 
          TOLERANCE HAS BEEN EXCEEDED AND CUTBACK IS REQUIRED.
 
	SYMMETRIC NEW DIRECT SPARSE SOLVER RUNNING ON
 	1 HOST x 1 MPI RANK PER HOST x 4 THREADS PER RANK
        NUMBER OF EQUATIONS:  2680
        NUMBER OF RHS:        1
        NUMBER OF FLOPS:      6.902e+06
        SOLVER ELAPSED TIME:  2ms

 ***NOTE: THE FRACTURE CRITERION f=1.1338 AT ELEMENT 608, THE DAMAGE INITIATION 
          TOLERANCE HAS BEEN EXCEEDED AND CUTBACK IS REQUIRED.


  INCREMENT    15 STARTS. ATTEMPT NUMBER  3, TIME INCREMENT  2.480E-02

 ***NOTE: THE FRACTURE CRITERION f=1.0501 AT ELEMENT 608, THE DAMAGE INITIATION 
          TOLERANCE HAS BEEN EXCEEDED AND CUTBACK IS REQUIRED.
 
	SYMMETRIC NEW DIRECT SPARSE SOLVER RUNNING ON
 	1 HOST x 1 MPI RANK PER HOST x 4 THREADS PER RANK
        NUMBER OF EQUATIONS:  2680
        NUMBER OF RHS:        1
        NUMBER OF FLOPS:      6.902e+06
        SOLVER ELAPSED TIME:  2ms

 ***NOTE: THE FRACTURE CRITERION f=1.0505 AT ELEMENT 608, THE DAMAGE INITIATION 
          TOLERANCE HAS BEEN EXCEEDED AND CUTBACK IS REQUIRED.


  INCREMENT    15 STARTS. ATTEMPT NUMBER  4, TIME INCREMENT  7.867E-03
 
	SYMMETRIC NEW DIRECT SPARSE SOLVER RUNNING ON
 	1 HOST x 1 MPI RANK PER HOST x 4 THREADS PER RANK
        NUMBER OF EQUATIONS:  2680
        NUMBER OF RHS:        1
        NUMBER OF FLOPS:      6.902e+06
        SOLVER ELAPSED TIME:  2ms

               CONVERGENCE CHECKS FOR EQUILIBRIUM ITERATION     1


 AVERAGE FORCE                       21.5       TIME AVG. FORCE        12.3    
 LARGEST SCALED RESIDUAL FORCE      2.827E-05   AT NODE        657   DOF  2
   INSTANCE: PLATE-1                                                                         
  CORRESPONDING RESIDUAL FORCE      2.827E-05
 LARGEST INCREMENT OF DISP.         8.340E-03   AT NODE       1302   DOF  2
   INSTANCE: PLATE-1                                                                         
 LARGEST CORRECTION TO DISP.        9.211E-06   AT NODE        657   DOF  2
   INSTANCE: PLATE-1                                                                         
          THE FORCE     EQUILIBRIUM EQUATIONS HAVE CONVERGED
          TIME INCREMENT MAY NOW INCREASE TO    1.180E-02

 ITERATION SUMMARY FOR THE INCREMENT:   1 TOTAL ITERATIONS, OF WHICH
   0 ARE SEVERE DISCONTINUITY ITERATIONS AND  1 ARE EQUILIBRIUM ITERATIONS.

 TIME INCREMENT COMPLETED  7.867E-03,  FRACTION OF STEP COMPLETED  0.659    
 STEP TIME COMPLETED       0.659    ,  TOTAL TIME COMPLETED        0.659    


  INCREMENT    16 STARTS. ATTEMPT NUMBER  1, TIME INCREMENT  1.180E-02
 
	SYMMETRIC NEW DIRECT SPARSE SOLVER RUNNING ON
 	1 HOST x 1 MPI RANK PER HOST x 4 THREADS PER RANK
        NUMBER OF EQUATIONS:  2684
        NUMBER OF RHS:        1
        NUMBER OF FLOPS:      7.038e+06
        SOLVER ELAPSED TIME:  2ms

               CONVERGENCE CHECKS FOR EQUILIBRIUM ITERATION     1


 AVERAGE FORCE                       21.9       TIME AVG. FORCE        12.9    
 LARGEST SCALED RESIDUAL FORCE      0.114       AT NODE        657   DOF  2
   INSTANCE: PLATE-1                                                                         
  CORRESPONDING RESIDUAL FORCE      0.114    
 LARGEST INCREMENT OF DISP.         2.048E-02   AT NODE        658   DOF  2
   INSTANCE: PLATE-1                                                                         
 LARGEST CORRECTION TO DISP.        1.416E-02   AT NODE        658   DOF  2
   INSTANCE: PLATE-1                                                                         
          FORCE     EQUILIBRIUM NOT ACHIEVED WITHIN TOLERANCE.
 
	SYMMETRIC NEW DIRECT SPARSE SOLVER RUNNING ON
 	1 HOST x 1 MPI RANK PER HOST x 4 THREADS PER RANK
        NUMBER OF EQUATIONS:  2684
        NUMBER OF RHS:        1
        NUMBER OF FLOPS:      7.038e+06
        SOLVER ELAPSED TIME:  2ms

               CONVERGENCE CHECKS FOR EQUILIBRIUM ITERATION     2


 AVERAGE FORCE                       21.9       TIME AVG. FORCE        12.9    
 LARGEST SCALED RESIDUAL FORCE      1.865E-02   AT NODE        658   DOF  2
   INSTANCE: PLATE-1                                                                         
  CORRESPONDING RESIDUAL FORCE      1.865E-02
 LARGEST INCREMENT OF DISP.         2.068E-02   AT NODE        658   DOF  2
   INSTANCE: PLATE-1                                                                         
 LARGEST CORRECTION TO DISP.       -2.893E-04   AT NODE        631   DOF  2
   INSTANCE: PLATE-1                                                                         
 ESTIMATE OF DISP.    CORRECTION   -4.754E-05
 FORCE     EQUILIB. ACCEPTED BASED ON SMALL RESIDUAL AND ESTIMATED CORRECTION
          TIME INCREMENT MAY NOW INCREASE TO    1.770E-02

 ITERATION SUMMARY FOR THE INCREMENT:   2 TOTAL ITERATIONS, OF WHICH
   0 ARE SEVERE DISCONTINUITY ITERATIONS AND  2 ARE EQUILIBRIUM ITERATIONS.

 TIME INCREMENT COMPLETED  1.180E-02,  FRACTION OF STEP COMPLETED  0.670    
 STEP TIME COMPLETED       0.670    ,  TOTAL TIME COMPLETED        0.670    


  INCREMENT    17 STARTS. ATTEMPT NUMBER  1, TIME INCREMENT  1.770E-02

 ***NOTE: THE FRACTURE CRITERION f=1.1191 AT ELEMENT 609, THE DAMAGE INITIATION 
          TOLERANCE HAS BEEN EXCEEDED AND CUTBACK IS REQUIRED.
 
	SYMMETRIC NEW DIRECT SPARSE SOLVER RUNNING ON
 	1 HOST x 1 MPI RANK PER HOST x 4 THREADS PER RANK
        NUMBER OF EQUATIONS:  2684
        NUMBER OF RHS:        1
        NUMBER OF FLOPS:      7.038e+06
        SOLVER ELAPSED TIME:  3ms

               CONVERGENCE CHECKS FOR EQUILIBRIUM ITERATION     1


 AVERAGE FORCE                       22.5       TIME AVG. FORCE        13.5    
 LARGEST SCALED RESIDUAL FORCE      3.479E-02   AT NODE        657   DOF  2
   INSTANCE: PLATE-1                                                                         
  CORRESPONDING RESIDUAL FORCE      3.479E-02
 LARGEST INCREMENT OF DISP.         2.032E-02   AT NODE       1301   DOF  2
   INSTANCE: PLATE-1                                                                         
 LARGEST CORRECTION TO DISP.       -1.751E-02   AT NODE        658   DOF  2
   INSTANCE: PLATE-1                                                                         
 ESTIMATE OF DISP.    CORRECTION    4.527E-05
 FORCE     EQUILIB. ACCEPTED BASED ON SMALL RESIDUAL AND ESTIMATED CORRECTION
          TIME INCREMENT MAY NOW INCREASE TO    2.655E-02

 ITERATION SUMMARY FOR THE INCREMENT:   1 TOTAL ITERATIONS, OF WHICH
   0 ARE SEVERE DISCONTINUITY ITERATIONS AND  1 ARE EQUILIBRIUM ITERATIONS.

 TIME INCREMENT COMPLETED  1.770E-02,  FRACTION OF STEP COMPLETED  0.688    
 STEP TIME COMPLETED       0.688    ,  TOTAL TIME COMPLETED        0.688    


  INCREMENT    18 STARTS. ATTEMPT NUMBER  1, TIME INCREMENT  2.655E-02

 ***NOTE: THE FRACTURE CRITERION f=1.0743 AT ELEMENT 609, THE DAMAGE INITIATION 
          TOLERANCE HAS BEEN EXCEEDED AND CUTBACK IS REQUIRED.
 
	SYMMETRIC NEW DIRECT SPARSE SOLVER RUNNING ON
 	1 HOST x 1 MPI RANK PER HOST x 4 THREADS PER RANK
        NUMBER OF EQUATIONS:  2684
        NUMBER OF RHS:        1
        NUMBER OF FLOPS:      7.038e+06
        SOLVER ELAPSED TIME:  2ms

 ***NOTE: THE FRACTURE CRITERION f=1.0747 AT ELEMENT 609, THE DAMAGE INITIATION 
          TOLERANCE HAS BEEN EXCEEDED AND CUTBACK IS REQUIRED.


  INCREMENT    18 STARTS. ATTEMPT NUMBER  2, TIME INCREMENT  2.471E-02

 ***NOTE: THE FRACTURE CRITERION f=1.0682 AT ELEMENT 609, THE DAMAGE INITIATION 
          TOLERANCE HAS BEEN EXCEEDED AND CUTBACK IS REQUIRED.
 
	SYMMETRIC NEW DIRECT SPARSE SOLVER RUNNING ON
 	1 HOST x 1 MPI RANK PER HOST x 4 THREADS PER RANK
        NUMBER OF EQUATIONS:  2684
        NUMBER OF RHS:        1
        NUMBER OF FLOPS:      7.038e+06
        SOLVER ELAPSED TIME:  2ms

 ***NOTE: THE FRACTURE CRITERION f=1.0686 AT ELEMENT 609, THE DAMAGE INITIATION 
          TOLERANCE HAS BEEN EXCEEDED AND CUTBACK IS REQUIRED.


  INCREMENT    18 STARTS. ATTEMPT NUMBER  3, TIME INCREMENT  1.156E-02
 
	SYMMETRIC NEW DIRECT SPARSE SOLVER RUNNING ON
 	1 HOST x 1 MPI RANK PER HOST x 4 THREADS PER RANK
        NUMBER OF EQUATIONS:  2684
        NUMBER OF RHS:        1
        NUMBER OF FLOPS:      7.038e+06
        SOLVER ELAPSED TIME:  2ms

               CONVERGENCE CHECKS FOR EQUILIBRIUM ITERATION     1


 AVERAGE FORCE                       22.9       TIME AVG. FORCE        14.0    
 LARGEST SCALED RESIDUAL FORCE      1.789E-04   AT NODE        657   DOF  2
   INSTANCE: PLATE-1                                                                         
  CORRESPONDING RESIDUAL FORCE      1.789E-04
 LARGEST INCREMENT OF DISP.         1.329E-02   AT NODE       1301   DOF  2
   INSTANCE: PLATE-1                                                                         
 LARGEST CORRECTION TO DISP.        7.751E-05   AT NODE        656   DOF  2
   INSTANCE: PLATE-1                                                                         
          THE FORCE     EQUILIBRIUM EQUATIONS HAVE CONVERGED
          TIME INCREMENT MAY NOW INCREASE TO    1.734E-02

 ITERATION SUMMARY FOR THE INCREMENT:   1 TOTAL ITERATIONS, OF WHICH
   0 ARE SEVERE DISCONTINUITY ITERATIONS AND  1 ARE EQUILIBRIUM ITERATIONS.

 TIME INCREMENT COMPLETED  1.156E-02,  FRACTION OF STEP COMPLETED  0.700    
 STEP TIME COMPLETED       0.700    ,  TOTAL TIME COMPLETED        0.700    


  INCREMENT    19 STARTS. ATTEMPT NUMBER  1, TIME INCREMENT  1.734E-02
 
	SYMMETRIC NEW DIRECT SPARSE SOLVER RUNNING ON
 	1 HOST x 1 MPI RANK PER HOST x 4 THREADS PER RANK
        NUMBER OF EQUATIONS:  2688
        NUMBER OF RHS:        1
        NUMBER OF FLOPS:      7.180e+06
        SOLVER ELAPSED TIME:  2ms

               CONVERGENCE CHECKS FOR EQUILIBRIUM ITERATION     1


 AVERAGE FORCE                       23.4       TIME AVG. FORCE        14.5    
 LARGEST SCALED RESIDUAL FORCE      0.206       AT NODE        659   DOF  2
   INSTANCE: PLATE-1                                                                         
  CORRESPONDING RESIDUAL FORCE      0.206    
 LARGEST INCREMENT OF DISP.         3.218E-02   AT NODE        657   DOF  2
   INSTANCE: PLATE-1                                                                         
 LARGEST CORRECTION TO DISP.        1.886E-02   AT NODE        659   DOF  2
   INSTANCE: PLATE-1                                                                         
          FORCE     EQUILIBRIUM NOT ACHIEVED WITHIN TOLERANCE.
 
	SYMMETRIC NEW DIRECT SPARSE SOLVER RUNNING ON
 	1 HOST x 1 MPI RANK PER HOST x 4 THREADS PER RANK
        NUMBER OF EQUATIONS:  2688
        NUMBER OF RHS:        1
        NUMBER OF FLOPS:      7.180e+06
        SOLVER ELAPSED TIME:  2ms

               CONVERGENCE CHECKS FOR EQUILIBRIUM ITERATION     2


 AVERAGE FORCE                       23.4       TIME AVG. FORCE        14.5    
 LARGEST SCALED RESIDUAL FORCE      1.454E-02   AT NODE        659   DOF  2
   INSTANCE: PLATE-1                                                                         
  CORRESPONDING RESIDUAL FORCE      1.454E-02
 LARGEST INCREMENT OF DISP.         3.269E-02   AT NODE        657   DOF  2
   INSTANCE: PLATE-1                                                                         
 LARGEST CORRECTION TO DISP.        5.072E-04   AT NODE        657   DOF  2
   INSTANCE: PLATE-1                                                                         
 ESTIMATE OF DISP.    CORRECTION    3.586E-05
 FORCE     EQUILIB. ACCEPTED BASED ON SMALL RESIDUAL AND ESTIMATED CORRECTION
          TIME INCREMENT MAY NOW INCREASE TO    2.601E-02

 ITERATION SUMMARY FOR THE INCREMENT:   2 TOTAL ITERATIONS, OF WHICH
   0 ARE SEVERE DISCONTINUITY ITERATIONS AND  2 ARE EQUILIBRIUM ITERATIONS.

 TIME INCREMENT COMPLETED  1.734E-02,  FRACTION OF STEP COMPLETED  0.717    
 STEP TIME COMPLETED       0.717    ,  TOTAL TIME COMPLETED        0.717    


  INCREMENT    20 STARTS. ATTEMPT NUMBER  1, TIME INCREMENT  2.601E-02
 
	SYMMETRIC NEW DIRECT SPARSE SOLVER RUNNING ON
 	1 HOST x 1 MPI RANK PER HOST x 4 THREADS PER RANK
        NUMBER OF EQUATIONS:  2692
        NUMBER OF RHS:        1
        NUMBER OF FLOPS:      6.738e+06
        SOLVER ELAPSED TIME:  2ms

 ***NOTE: THE FRACTURE CRITERION f=1.1596 AT ELEMENT 611, THE DAMAGE INITIATION 
          TOLERANCE HAS BEEN EXCEEDED AND CUTBACK IS REQUIRED.


  INCREMENT    20 STARTS. ATTEMPT NUMBER  2, TIME INCREMENT  2.243E-02
 
	SYMMETRIC NEW DIRECT SPARSE SOLVER RUNNING ON
 	1 HOST x 1 MPI RANK PER HOST x 4 THREADS PER RANK
        NUMBER OF EQUATIONS:  2692
        NUMBER OF RHS:        1
        NUMBER OF FLOPS:      6.738e+06
        SOLVER ELAPSED TIME:  2ms

 ***NOTE: THE FRACTURE CRITERION f=1.1320 AT ELEMENT 611, THE DAMAGE INITIATION 
          TOLERANCE HAS BEEN EXCEEDED AND CUTBACK IS REQUIRED.


  INCREMENT    20 STARTS. ATTEMPT NUMBER  3, TIME INCREMENT  9.907E-03
 
	SYMMETRIC NEW DIRECT SPARSE SOLVER RUNNING ON
 	1 HOST x 1 MPI RANK PER HOST x 4 THREADS PER RANK
        NUMBER OF EQUATIONS:  2692
        NUMBER OF RHS:        1
        NUMBER OF FLOPS:      6.738e+06
        SOLVER ELAPSED TIME:  2ms

               CONVERGENCE CHECKS FOR EQUILIBRIUM ITERATION     1


 AVERAGE FORCE                       23.7       TIME AVG. FORCE        15.0    
 LARGEST SCALED RESIDUAL FORCE     -4.283E-02   AT NODE        660   DOF  2
   INSTANCE: PLATE-1                                                                         
  CORRESPONDING RESIDUAL FORCE     -4.283E-02
 LARGEST INCREMENT OF DISP.         3.413E-02   AT NODE        658   DOF  2
   INSTANCE: PLATE-1                                                                         
 LARGEST CORRECTION TO DISP.        1.823E-02   AT NODE        660   DOF  2
   INSTANCE: PLATE-1                                                                         
 ESTIMATE OF DISP.    CORRECTION    5.653E-05
 FORCE     EQUILIB. ACCEPTED BASED ON SMALL RESIDUAL AND ESTIMATED CORRECTION
          TIME INCREMENT MAY NOW INCREASE TO    1.486E-02

 ITERATION SUMMARY FOR THE INCREMENT:   1 TOTAL ITERATIONS, OF WHICH
   0 ARE SEVERE DISCONTINUITY ITERATIONS AND  1 ARE EQUILIBRIUM ITERATIONS.

 TIME INCREMENT COMPLETED  9.907E-03,  FRACTION OF STEP COMPLETED  0.727    
 STEP TIME COMPLETED       0.727    ,  TOTAL TIME COMPLETED        0.727    


  INCREMENT    21 STARTS. ATTEMPT NUMBER  1, TIME INCREMENT  1.486E-02
 
	SYMMETRIC NEW DIRECT SPARSE SOLVER RUNNING ON
 	1 HOST x 1 MPI RANK PER HOST x 4 THREADS PER RANK
        NUMBER OF EQUATIONS:  2696
        NUMBER OF RHS:        1
        NUMBER OF FLOPS:      6.866e+06
        SOLVER ELAPSED TIME:  2ms

 ***NOTE: THE FRACTURE CRITERION f=1.5637 AT ELEMENT 612, THE DAMAGE INITIATION 
          TOLERANCE HAS BEEN EXCEEDED AND CUTBACK IS REQUIRED.


  INCREMENT    21 STARTS. ATTEMPT NUMBER  2, TIME INCREMENT  9.504E-03
 
	SYMMETRIC NEW DIRECT SPARSE SOLVER RUNNING ON
 	1 HOST x 1 MPI RANK PER HOST x 4 THREADS PER RANK
        NUMBER OF EQUATIONS:  2696
        NUMBER OF RHS:        1
        NUMBER OF FLOPS:      6.866e+06
        SOLVER ELAPSED TIME:  2ms

 ***NOTE: THE FRACTURE CRITERION f=1.4260 AT ELEMENT 612, THE DAMAGE INITIATION 
          TOLERANCE HAS BEEN EXCEEDED AND CUTBACK IS REQUIRED.


  INCREMENT    21 STARTS. ATTEMPT NUMBER  3, TIME INCREMENT  3.332E-03
 
	SYMMETRIC NEW DIRECT SPARSE SOLVER RUNNING ON
 	1 HOST x 1 MPI RANK PER HOST x 4 THREADS PER RANK
        NUMBER OF EQUATIONS:  2696
        NUMBER OF RHS:        1
        NUMBER OF FLOPS:      6.866e+06
        SOLVER ELAPSED TIME:  2ms

 ***NOTE: THE FRACTURE CRITERION f=1.2688 AT ELEMENT 612, THE DAMAGE INITIATION 
          TOLERANCE HAS BEEN EXCEEDED AND CUTBACK IS REQUIRED.


  INCREMENT    21 STARTS. ATTEMPT NUMBER  4, TIME INCREMENT  8.755E-04
 
	SYMMETRIC NEW DIRECT SPARSE SOLVER RUNNING ON
 	1 HOST x 1 MPI RANK PER HOST x 4 THREADS PER RANK
        NUMBER OF EQUATIONS:  2696
        NUMBER OF RHS:        1
        NUMBER OF FLOPS:      6.866e+06
        SOLVER ELAPSED TIME:  2ms

 ***NOTE: THE FRACTURE CRITERION f=1.2053 AT ELEMENT 612, THE DAMAGE INITIATION 
          TOLERANCE HAS BEEN EXCEEDED AND CUTBACK IS REQUIRED.


  INCREMENT    21 STARTS. ATTEMPT NUMBER  5, TIME INCREMENT  1.816E-04
 
	SYMMETRIC NEW DIRECT SPARSE SOLVER RUNNING ON
 	1 HOST x 1 MPI RANK PER HOST x 4 THREADS PER RANK
        NUMBER OF EQUATIONS:  2696
        NUMBER OF RHS:        1
        NUMBER OF FLOPS:      6.866e+06
        SOLVER ELAPSED TIME:  2ms

 ***NOTE: THE FRACTURE CRITERION f=1.1890 AT ELEMENT 612, THE DAMAGE INITIATION 
          TOLERANCE HAS BEEN EXCEEDED AND CUTBACK IS REQUIRED.
 

 ***ERROR: TOO MANY ATTEMPTS MADE FOR THIS INCREMENT

 ***ERROR: THE ANALYSIS HAS BEEN TERMINATED DUE TO PREVIOUS ERRORS. ALL OUTPUT 
           REQUESTS HAVE BEEN WRITTEN FOR THE LAST CONVERGED INCREMENT.



     ANALYSIS SUMMARY:
     TOTAL OF         21  INCREMENTS
                      19  CUTBACKS IN AUTOMATIC INCREMENTATION
                      44  ITERATIONS INCLUDING CONTACT ITERATIONS IF PRESENT
                      44  PASSES THROUGH THE EQUATION SOLVER OF WHICH 
                      36  INVOLVE MATRIX DECOMPOSITION, INCLUDING
                       0  DECOMPOSITION(S) OF THE MASS MATRIX
                       1  REORDERING OF EQUATIONS TO MINIMIZE WAVEFRONT
                       0  ADDITIONAL RESIDUAL EVALUATIONS FOR LINE SEARCHES
                       0  ADDITIONAL OPERATOR EVALUATIONS FOR LINE SEARCHES
                       8  WARNING MESSAGES DURING USER INPUT PROCESSING
                       0  WARNING MESSAGES DURING ANALYSIS
                       0  ANALYSIS WARNINGS ARE NUMERICAL PROBLEM MESSAGES
                       0  ANALYSIS WARNINGS ARE NEGATIVE EIGENVALUE MESSAGES
                       2  ERROR MESSAGES



     JOB TIME SUMMARY
       USER TIME (SEC)      =      3.0    
       SYSTEM TIME (SEC)    =      2.4    
       TOTAL CPU TIME (SEC) =      5.4    
       WALLCLOCK TIME (SEC) =            5
       MEMORY PEAK (GB)     =            0
