 Abaqus/Standard 2023.HF4                  DATE 13-Aug-2024 TIME 17:00:35
 SUMMARY OF JOB INFORMATION:
 STEP  INC ATT SEVERE EQUIL TOTAL  TOTAL      STEP       INC OF       DOF    IF
               DISCON ITERS ITERS  TIME/    TIME/LPF    TIME/LPF    MONITOR RIKS
               ITERS               FREQ
   1     1   1     0     1     1  0.0200     0.0200     0.02000   
   1     2   1     0     1     1  0.0400     0.0400     0.02000   
   1     3   1     0     1     1  0.0700     0.0700     0.03000   
   1     4   1     0     1     1  0.115      0.115      0.04500   
   1     5   1     0     1     1  0.182      0.182      0.06750   
   1     6   1     0     1     1  0.284      0.284      0.1013    
   1     7   1     0     1     1  0.436      0.436      0.1519    
   1     8   1U    0     1     1  0.436      0.436      0.2278    
   1     8   2U    0     1     1  0.436      0.436      0.1607    
   1     8   3U    0     1     1  0.436      0.436      0.06306   
   1     8   4     0     1     1  0.455      0.455      0.01973   
   1     9   1     0     1     1  0.485      0.485      0.02959   
   1    10   1     0     2     2  0.529      0.529      0.04439   
   1    11   1U    0     1     1  0.529      0.529      0.06658   
   1    11   2U    0     1     1  0.529      0.529      0.06270   
   1    11   3     0     1     1  0.559      0.559      0.02978   
   1    12   1U    0     1     1  0.559      0.559      0.04467   
   1    12   2U    0     1     1  0.559      0.559      0.04135   
   1    12   3     0     1     1  0.578      0.578      0.01928   
   1    13   1     0     2     2  0.607      0.607      0.02892   
   1    14   1     0     2     2  0.651      0.651      0.04338   
   1    15   1U    0     1     1  0.651      0.651      0.06506   
   1    15   2U    0     1     1  0.651      0.651      0.05622   
   1    15   3U    0     1     1  0.651      0.651      0.02480   
   1    15   4     0     1     1  0.659      0.659      0.007867  
   1    16   1     0     2     2  0.670      0.670      0.01180   
   1    17   1     0     1     1  0.688      0.688      0.01770   
   1    18   1U    0     1     1  0.688      0.688      0.02655   
   1    18   2U    0     1     1  0.688      0.688      0.02471   
   1    18   3     0     1     1  0.700      0.700      0.01156   
   1    19   1     0     2     2  0.717      0.717      0.01734   
   1    20   1U    0     1     1  0.717      0.717      0.02601   
   1    20   2U    0     1     1  0.717      0.717      0.02243   
   1    20   3     0     1     1  0.727      0.727      0.009907  
   1    21   1U    0     1     1  0.727      0.727      0.01486   
   1    21   2U    0     1     1  0.727      0.727      0.009504  
   1    21   3U    0     1     1  0.727      0.727      0.003332  
   1    21   4U    0     1     1  0.727      0.727      0.0008755 
   1    21   5U    0     1     1  0.727      0.727      0.0001816 
   1    21   6U    0     1     1  0.727      0.727      0.0001816 
                          
 THE ANALYSIS HAS NOT BEEN COMPLETED
