*Heading
** Job name: Job-1 Model name: Model-1
** Generated by: Abaqus/CAE 2023.HF4
*Preprint, echo=NO, model=NO, history=NO, contact=NO
**
** PARTS
**
*Part, name=crack
*End Part
**  
*Part, name=plate
*Node
      1,           0.,           0.
      2,           2.,           0.
      3,           4.,           0.
      4,           6.,           0.
      5,           8.,           0.
      6,          10.,           0.
      7,          12.,           0.
      8,          14.,           0.
      9,          16.,           0.
     10,          18.,           0.
     11,          20.,           0.
     12,          22.,           0.
     13,          24.,           0.
     14,          26.,           0.
     15,          28.,           0.
     16,          30.,           0.
     17,          32.,           0.
     18,          34.,           0.
     19,          36.,           0.
     20,          38.,           0.
** ... 1306 like lines cut
*Element, type=CPS4R
   1,    1,    2,   28,   27
   2,    2,    3,   29,   28
   3,    3,    4,   30,   29
   4,    4,    5,   31,   30
   5,    5,    6,   32,   31
   6,    6,    7,   33,   32
   7,    7,    8,   34,   33
   8,    8,    9,   35,   34
   9,    9,   10,   36,   35
  10,   10,   11,   37,   36
  11,   11,   12,   38,   37
  12,   12,   13,   39,   38
  13,   13,   14,   40,   39
  14,   14,   15,   41,   40
  15,   15,   16,   42,   41
  16,   16,   17,   43,   42
  17,   17,   18,   44,   43
  18,   18,   19,   45,   44
  19,   19,   20,   46,   45
  20,   20,   21,   47,   46
** ... 1230 like lines cut
*Nset, nset=Set-1, generate
    1,  1326,     1
*Elset, elset=Set-1, generate
    1,  1250,     1
** Section: Section-2
*Solid Section, elset=Set-1, material=Material-1
,
*End Part
**  
**
** ASSEMBLY
**
*Assembly, name=Assembly
**  
*Instance, name=crack-1, part=crack
          0.,          50.,           0.
*End Instance
**  
*Instance, name=plate-1, part=plate
*End Instance
**  
*Nset, nset=Set-3, instance=plate-1, generate
  1,  26,   1
*Elset, elset=Set-3, instance=plate-1, generate
  1,  25,   1
*Nset, nset=Set-4, instance=plate-1, generate
 1301,  1326,     1
*Elset, elset=Set-4, instance=plate-1, generate
 1226,  1250,     1
*Nset, nset=Set-5, instance=plate-1, generate
    1,  1326,     1
*Elset, elset=Set-5, instance=plate-1, generate
    1,  1250,     1
*Nset, nset=_PickedSet6, internal, instance=plate-1, generate
    1,  1326,     1
*Elset, elset=_PickedSet6, internal, instance=plate-1, generate
    1,  1250,     1
*Elset, elset=_Surf-1_S3, internal, instance=plate-1, generate
 1226,  1250,     1
*Surface, type=ELEMENT, name=Surf-1
_Surf-1_S3, S3
*Enrichment, name=Crack-1, type=PROPAGATION CRACK, elset=_PickedSet6
*End Assembly
** 
** MATERIALS
** 
*Material, name=Material-1
*Damage Initiation, criterion=MAXPS
60.,
*Damage Evolution, type=DISPLACEMENT
 0.4,
*Elastic
5000., 0.3
*Initial Conditions, type=ENRICHMENT
plate-1.605, 1,Crack-1, -2., -2.
plate-1.605, 2,Crack-1, -2., 0.
plate-1.605, 3,Crack-1, 1e-06, 0.
plate-1.605, 4,Crack-1, 1e-06, -2.
plate-1.604, 1,Crack-1, -2.
plate-1.604, 2,Crack-1, -2.
plate-1.604, 3,Crack-1, 1e-06
plate-1.604, 4,Crack-1, 1e-06
plate-1.603, 1,Crack-1, -2.
plate-1.603, 2,Crack-1, -2.
plate-1.603, 3,Crack-1, 1e-06
plate-1.603, 4,Crack-1, 1e-06
plate-1.602, 1,Crack-1, -2.
plate-1.602, 2,Crack-1, -2.
plate-1.602, 3,Crack-1, 1e-06
plate-1.602, 4,Crack-1, 1e-06
plate-1.601, 1,Crack-1, -2.
plate-1.601, 2,Crack-1, -2.
plate-1.601, 3,Crack-1, 1e-06
plate-1.601, 4,Crack-1, 1e-06
** 
** BOUNDARY CONDITIONS
** 
** Name: BC-1 Type: Symmetry/Antisymmetry/Encastre
*Boundary
Set-3, ENCASTRE
** Name: BC-2 Type: Displacement/Rotation
*Boundary
Set-4, 1, 1
Set-4, 6, 6
** ----------------------------------------------------------------
** 
** STEP: Step-1
** 
*Step, name=Step-1, nlgeom=NO, inc=10000
*Static
0.02, 1., 1e-10, 1.
** 
** BOUNDARY CONDITIONS
** 
** Name: BC-3 Type: Displacement/Rotation
*Boundary
Set-5, 1, 1
Set-5, 6, 6
** 
** LOADS
** 
** Name: Load-1   Type: Surface traction
*Dsload
Surf-1, TRVEC, 50., 0., 1., 0.
** 
** INTERACTIONS
** 
** Interaction: Int-1
*Enrichment Activation, name=Crack-1, activate=ON
** 
** OUTPUT REQUESTS
** 
*Restart, write, frequency=0
** 
** FIELD OUTPUT: F-Output-1
** 
*Output, field
*Node Output
CF, PHILSM, PSILSM, RF, U
*Element Output, directions=YES
LE, PE, PEEQ, PEMAG, S, STATUS, STATUSXFEM
*Contact Output
CDISP, CSTRESS
** 
** HISTORY OUTPUT: H-Output-1
** 
*Output, history, variable=PRESELECT
*End Step
