1

   Abaqus 2023.HF4                                  Date 22-Sep-2024   Time 20:25:06
   For use by AALTO UNIVERSITY under license from Dassault Systemes or its subsidiary.

                                                                                 
                                                                                 
 STEP    1     INCREMENT     1     STEP TIME    0.00    


                        S T E P       1     C O U P L E D - T E M P E R A T U R E - D I S P L A C E M E N T   A N A L Y S I S


                                                                                          

          FIXED TIME INCREMENTS
          TIME INCREMENT IS                                     720.    
          TIME PERIOD IS                                       7.200E+03

          CREEP AND SWELLING EFFECTS ARE OMITTED IN THIS STEP
          THE RATE DEPENDENCY WILL BE CONSIDERED IN THIS STEP

          CREEP AND SWELLING EFFECTS WILL BE IGNORED.

 CONVERGENCE TOLERANCE PARAMETERS FOR FORCE    
     CRITERION FOR RESIDUAL FORCE     FOR A NONLINEAR PROBLEM          5.000E-03
     CRITERION FOR DISP.    CORRECTION IN A NONLINEAR PROBLEM          1.000E-02
     INITIAL VALUE OF TIME AVERAGE FORCE                               1.000E-02
     AVERAGE FORCE     IS TIME AVERAGE FORCE    
     ALTERNATE CRIT. FOR RESIDUAL FORCE     FOR A NONLINEAR PROBLEM    2.000E-02
     CRITERION FOR ZERO FORCE     RELATIVE TO TIME AVRG. FORCE         1.000E-05
     CRITERION FOR RESIDUAL FORCE     WHEN THERE IS ZERO FLUX          1.000E-05
     CRITERION FOR DISP.    CORRECTION WHEN THERE IS ZERO FLUX         1.000E-03
     CRITERION FOR RESIDUAL FORCE     FOR A LINEAR INCREMENT           1.000E-08
     FIELD CONVERSION RATIO                                             1.00    
     CRITERION FOR ZERO FORCE     REL. TO TIME AVRG. MAX. FORCE        1.000E-05
     CRITERION FOR ZERO DISP.    RELATIVE TO CHARACTERISTIC LENGTH     1.000E-08

 CONVERGENCE TOLERANCE PARAMETERS FOR HEAT FLUX
     CRITERION FOR RESIDUAL HEAT FLUX FOR A NONLINEAR PROBLEM          5.000E-03
     CRITERION FOR TEMP.    CORRECTION IN A NONLINEAR PROBLEM          1.000E-02
     INITIAL VALUE OF TIME AVERAGE HEAT FLUX                           1.000E-02
     AVERAGE HEAT FLUX IS TIME AVERAGE HEAT FLUX
     ALTERNATE CRIT. FOR RESIDUAL HEAT FLUX FOR A NONLINEAR PROBLEM    2.000E-02
     CRITERION FOR ZERO HEAT FLUX RELATIVE TO TIME AVRG. HEAT FLUX     1.000E-05
     CRITERION FOR RESIDUAL HEAT FLUX WHEN THERE IS ZERO FLUX          1.000E-05
     CRITERION FOR TEMP.    CORRECTION WHEN THERE IS ZERO FLUX         1.000E-03
     CRITERION FOR RESIDUAL HEAT FLUX FOR A LINEAR INCREMENT           1.000E-08
     FIELD CONVERSION RATIO                                             1.00    
     CRITERION FOR ZERO HEAT FLUX REL. TO TIME AVRG. MAX. HEAT FLUX    1.000E-05

     VOLUMETRIC STRAIN COMPATIBILITY TOLERANCE FOR HYBRID SOLIDS       1.000E-05
     AXIAL STRAIN COMPATIBILITY TOLERANCE FOR HYBRID BEAMS             1.000E-05
     TRANS. SHEAR STRAIN COMPATIBILITY TOLERANCE FOR HYBRID BEAMS      1.000E-05
     SOFT CONTACT CONSTRAINT COMPATIBILITY TOLERANCE FOR P>P0          5.000E-03
     SOFT CONTACT CONSTRAINT COMPATIBILITY TOLERANCE FOR P=0.0         0.100    
     CONTACT FORCE ERROR TOLERANCE FOR CONVERT SDI=YES                 1.00    
     DISPLACEMENT COMPATIBILITY TOLERANCE FOR DCOUP ELEMENTS           1.000E-05
     ROTATION COMPATIBILITY TOLERANCE FOR DCOUP ELEMENTS               1.000E-05

 EQUILIBRIUM WILL BE CHECKED FOR SEVERE DISCONTINUITY ITERATIONS

 ITERATION CONTROL PARAMETERS:
     FIRST EQUILIBRIUM ITERATION FOR CONSECUTIVE DIVERGENCE CHECK              4
     EQUILIBRIUM ITERATION AFTER WHICH ALTERNATE RESIDUAL IS USED              9
     MAXIMUM EQUILIBRIUM ITERATIONS ALLOWED                                   16
     MAXIMUM ITERATIONS FOR SEVERE DISCONTINUITIES                            12
     GLOBAL STABILIZATION CONTROL IS NOT USED

          PRINT OF INCREMENT NUMBER, TIME, ETC., EVERY    1  INCREMENTS

     THE MAXIMUM NUMBER OF INCREMENTS IN THIS STEP IS                 1000000

          LARGE DISPLACEMENT THEORY WILL BE USED

          UNSYMMETRIC MATRIX STORAGE AND SOLUTION WILL BE USED

     LINEAR EXTRAPOLATION WILL BE USED

     CHARACTERISTIC ELEMENT LENGTH     1.943E-04

     DETAILS REGARDING ACTUAL SOLUTION WAVEFRONT REQUESTED

     DETAILED OUTPUT OF DIAGNOSTICS TO DATABASE REQUESTED

     PRINT OF INCREMENT NUMBER, TIME, ETC., TO THE MESSAGE FILE EVERY     1  INCREMENTS

     ELEMENT OPERATIONS WILL BE CARRIED OUT IN PARALLEL USING   8 THREADS ON 1 DOMAIN

     PARALLEL CONTACT TRACKING ENABLED


     COLLECTING MODEL CONSTRAINT INFORMATION FOR OVERCONSTRAINT CHECKS

     COLLECTING STEP CONSTRAINT INFORMATION FOR OVERCONSTRAINT CHECKS


  INCREMENT     1 STARTS. ATTEMPT NUMBER  1, TIME INCREMENT   720.    
 
     INITIAL ELEMENT LOAD BALANCE
            DOMAIN    1     THREAD    NUMBER OF ELEMENTS
                              1            8080
                              2            8232
                              3            7968
                              4            8080
                              5            8592
                              6            8328
                              7            8052
                              8            8376
 
	UNSYMMETRIC NEW DIRECT SPARSE SOLVER RUNNING ON
 	1 HOST x 1 MPI RANK PER HOST x 8 THREADS PER RANK
        NUMBER OF EQUATIONS:  206910
        NUMBER OF RHS:        1
        NUMBER OF FLOPS:      3.222e+11
        SOLVER ELAPSED TIME:  2.3s

               CONVERGENCE CHECKS FOR EQUILIBRIUM ITERATION     1


 AVERAGE FORCE                       0.00       TIME AVG. FORCE       1.000E-02
 ALL FORCE     RESIDUALS ARE ZERO
 ALL DISP.    INCREMENTS ARE ZERO
 ALL CORRECTION TO DISP.    ARE ZERO
          THERE IS ZERO FORCE     EVERYWHERE

 AVERAGE HEAT FLUX                   198.       TIME AVG. HEAT FLUX    198.    
 LARGEST RESIDUAL HEAT FLUX        -8.731E-11   AT NODE       2884   DOF 11
   INSTANCE: CHD4                                                                            
 LARGEST INCREMENT OF TEMP.          8.72       AT NODE          1   DOF 11
   INSTANCE: CHD4                                                                            
 LARGEST CORRECTION TO TEMP.         8.72       AT NODE          1   DOF 11
   INSTANCE: CHD4                                                                            
          THE HEAT FLUX EQUILIBRIUM RESPONSE WAS LINEAR IN THIS INCREMENT

 ITERATION SUMMARY FOR THE INCREMENT:   1 TOTAL ITERATIONS, OF WHICH
   0 ARE SEVERE DISCONTINUITY ITERATIONS AND  1 ARE EQUILIBRIUM ITERATIONS.

 TIME INCREMENT COMPLETED   720.    ,  FRACTION OF STEP COMPLETED  0.100    
 STEP TIME COMPLETED        720.    ,  TOTAL TIME COMPLETED         720.    


  INCREMENT     2 STARTS. ATTEMPT NUMBER  1, TIME INCREMENT   720.    
 
	UNSYMMETRIC NEW DIRECT SPARSE SOLVER RUNNING ON
 	1 HOST x 1 MPI RANK PER HOST x 8 THREADS PER RANK
        NUMBER OF EQUATIONS:  206910
        NUMBER OF RHS:        1
        NUMBER OF FLOPS:      3.222e+11
        SOLVER ELAPSED TIME:  1.8s

               CONVERGENCE CHECKS FOR EQUILIBRIUM ITERATION     1


 AVERAGE FORCE                       0.00       TIME AVG. FORCE       1.000E-02
 ALL FORCE     RESIDUALS ARE ZERO
 ALL DISP.    INCREMENTS ARE ZERO
 ALL CORRECTION TO DISP.    ARE ZERO
          THERE IS ZERO FORCE     EVERYWHERE

 AVERAGE HEAT FLUX                   117.       TIME AVG. HEAT FLUX    158.    
 LARGEST RESIDUAL HEAT FLUX        -8.185E-11   AT NODE       2920   DOF 11
   INSTANCE: CHD4                                                                            
 LARGEST INCREMENT OF TEMP.          2.92       AT NODE       3437   DOF 11
   INSTANCE: CHD4                                                                            
 LARGEST CORRECTION TO TEMP.        -8.72       AT NODE          1   DOF 11
   INSTANCE: CHD4                                                                            
          THE HEAT FLUX EQUILIBRIUM RESPONSE WAS LINEAR IN THIS INCREMENT

 ITERATION SUMMARY FOR THE INCREMENT:   1 TOTAL ITERATIONS, OF WHICH
   0 ARE SEVERE DISCONTINUITY ITERATIONS AND  1 ARE EQUILIBRIUM ITERATIONS.

 TIME INCREMENT COMPLETED   720.    ,  FRACTION OF STEP COMPLETED  0.200    
 STEP TIME COMPLETED       1.440E+03,  TOTAL TIME COMPLETED        1.440E+03


  INCREMENT     3 STARTS. ATTEMPT NUMBER  1, TIME INCREMENT   720.    
 
	UNSYMMETRIC NEW DIRECT SPARSE SOLVER RUNNING ON
 	1 HOST x 1 MPI RANK PER HOST x 8 THREADS PER RANK
        NUMBER OF EQUATIONS:  206910
        NUMBER OF RHS:        1
        NUMBER OF FLOPS:      3.222e+11
        SOLVER ELAPSED TIME:  2.6s

               CONVERGENCE CHECKS FOR EQUILIBRIUM ITERATION     1


 AVERAGE FORCE                       0.00       TIME AVG. FORCE       1.000E-02
 ALL FORCE     RESIDUALS ARE ZERO
 ALL DISP.    INCREMENTS ARE ZERO
 ALL CORRECTION TO DISP.    ARE ZERO
          THERE IS ZERO FORCE     EVERYWHERE

 AVERAGE HEAT FLUX                   35.6       TIME AVG. HEAT FLUX    117.    
 LARGEST RESIDUAL HEAT FLUX        -4.923E-11   AT NODE       1582   DOF 11
   INSTANCE: CHD4                                                                            
 LARGEST INCREMENT OF TEMP.         0.912       AT NODE       3342   DOF 11
   INSTANCE: CHD4                                                                            
 LARGEST CORRECTION TO TEMP.        -2.01       AT NODE       3437   DOF 11
   INSTANCE: CHD4                                                                            
          THE HEAT FLUX EQUILIBRIUM RESPONSE WAS LINEAR IN THIS INCREMENT

 ITERATION SUMMARY FOR THE INCREMENT:   1 TOTAL ITERATIONS, OF WHICH
   0 ARE SEVERE DISCONTINUITY ITERATIONS AND  1 ARE EQUILIBRIUM ITERATIONS.

 TIME INCREMENT COMPLETED   720.    ,  FRACTION OF STEP COMPLETED  0.300    
 STEP TIME COMPLETED       2.160E+03,  TOTAL TIME COMPLETED        2.160E+03


  INCREMENT     4 STARTS. ATTEMPT NUMBER  1, TIME INCREMENT   720.    
 
	UNSYMMETRIC NEW DIRECT SPARSE SOLVER RUNNING ON
 	1 HOST x 1 MPI RANK PER HOST x 8 THREADS PER RANK
        NUMBER OF EQUATIONS:  206910
        NUMBER OF RHS:        1
        NUMBER OF FLOPS:      3.222e+11
        SOLVER ELAPSED TIME:  2.6s

               CONVERGENCE CHECKS FOR EQUILIBRIUM ITERATION     1


 AVERAGE FORCE                       0.00       TIME AVG. FORCE       1.000E-02
 ALL FORCE     RESIDUALS ARE ZERO
 ALL DISP.    INCREMENTS ARE ZERO
 ALL CORRECTION TO DISP.    ARE ZERO
          THERE IS ZERO FORCE     EVERYWHERE

 AVERAGE HEAT FLUX                   5.05       TIME AVG. HEAT FLUX    89.0    
 LARGEST RESIDUAL HEAT FLUX         4.061E-11   AT NODE       1618   DOF 11
   INSTANCE: CHD4                                                                            
 LARGEST INCREMENT OF TEMP.         0.274       AT NODE       3342   DOF 11
   INSTANCE: CHD4                                                                            
 LARGEST CORRECTION TO TEMP.       -0.639       AT NODE       3342   DOF 11
   INSTANCE: CHD4                                                                            
          THE HEAT FLUX EQUILIBRIUM RESPONSE WAS LINEAR IN THIS INCREMENT

 ITERATION SUMMARY FOR THE INCREMENT:   1 TOTAL ITERATIONS, OF WHICH
   0 ARE SEVERE DISCONTINUITY ITERATIONS AND  1 ARE EQUILIBRIUM ITERATIONS.

 TIME INCREMENT COMPLETED   720.    ,  FRACTION OF STEP COMPLETED  0.400    
 STEP TIME COMPLETED       2.880E+03,  TOTAL TIME COMPLETED        2.880E+03


  INCREMENT     5 STARTS. ATTEMPT NUMBER  1, TIME INCREMENT   720.    
 
	UNSYMMETRIC NEW DIRECT SPARSE SOLVER RUNNING ON
 	1 HOST x 1 MPI RANK PER HOST x 8 THREADS PER RANK
        NUMBER OF EQUATIONS:  206910
        NUMBER OF RHS:        1
        NUMBER OF FLOPS:      3.222e+11
        SOLVER ELAPSED TIME:  2.6s

               CONVERGENCE CHECKS FOR EQUILIBRIUM ITERATION     1


 AVERAGE FORCE                       0.00       TIME AVG. FORCE       1.000E-02
 ALL FORCE     RESIDUALS ARE ZERO
 ALL DISP.    INCREMENTS ARE ZERO
 ALL CORRECTION TO DISP.    ARE ZERO
          THERE IS ZERO FORCE     EVERYWHERE

 AVERAGE HEAT FLUX                   1.52       TIME AVG. HEAT FLUX    71.5    
 LARGEST RESIDUAL HEAT FLUX        -4.166E-11   AT NODE       3007   DOF 11
   INSTANCE: CHD4                                                                            
 LARGEST INCREMENT OF TEMP.         8.171E-02   AT NODE       3342   DOF 11
   INSTANCE: CHD4                                                                            
 LARGEST CORRECTION TO TEMP.       -0.192       AT NODE       3342   DOF 11
   INSTANCE: CHD4                                                                            
          THE HEAT FLUX EQUILIBRIUM RESPONSE WAS LINEAR IN THIS INCREMENT

 ITERATION SUMMARY FOR THE INCREMENT:   1 TOTAL ITERATIONS, OF WHICH
   0 ARE SEVERE DISCONTINUITY ITERATIONS AND  1 ARE EQUILIBRIUM ITERATIONS.

 TIME INCREMENT COMPLETED   720.    ,  FRACTION OF STEP COMPLETED  0.500    
 STEP TIME COMPLETED       3.600E+03,  TOTAL TIME COMPLETED        3.600E+03


  INCREMENT     6 STARTS. ATTEMPT NUMBER  1, TIME INCREMENT   720.    
 
	UNSYMMETRIC NEW DIRECT SPARSE SOLVER RUNNING ON
 	1 HOST x 1 MPI RANK PER HOST x 8 THREADS PER RANK
        NUMBER OF EQUATIONS:  206910
        NUMBER OF RHS:        1
        NUMBER OF FLOPS:      3.222e+11
        SOLVER ELAPSED TIME:  2.6s

               CONVERGENCE CHECKS FOR EQUILIBRIUM ITERATION     1


 AVERAGE FORCE                       0.00       TIME AVG. FORCE       1.000E-02
 ALL FORCE     RESIDUALS ARE ZERO
 ALL DISP.    INCREMENTS ARE ZERO
 ALL CORRECTION TO DISP.    ARE ZERO
          THERE IS ZERO FORCE     EVERYWHERE

 AVERAGE HEAT FLUX                  0.459       TIME AVG. HEAT FLUX    59.7    
 LARGEST RESIDUAL HEAT FLUX         4.373E-11   AT NODE        636   DOF 11
   INSTANCE: CHD4                                                                            
 LARGEST INCREMENT OF TEMP.         2.440E-02   AT NODE       3342   DOF 11
   INSTANCE: CHD4                                                                            
 LARGEST CORRECTION TO TEMP.       -5.730E-02   AT NODE       3342   DOF 11
   INSTANCE: CHD4                                                                            
          THE HEAT FLUX EQUILIBRIUM RESPONSE WAS LINEAR IN THIS INCREMENT

 ITERATION SUMMARY FOR THE INCREMENT:   1 TOTAL ITERATIONS, OF WHICH
   0 ARE SEVERE DISCONTINUITY ITERATIONS AND  1 ARE EQUILIBRIUM ITERATIONS.

 TIME INCREMENT COMPLETED   720.    ,  FRACTION OF STEP COMPLETED  0.600    
 STEP TIME COMPLETED       4.320E+03,  TOTAL TIME COMPLETED        4.320E+03


  INCREMENT     7 STARTS. ATTEMPT NUMBER  1, TIME INCREMENT   720.    
 
	UNSYMMETRIC NEW DIRECT SPARSE SOLVER RUNNING ON
 	1 HOST x 1 MPI RANK PER HOST x 8 THREADS PER RANK
        NUMBER OF EQUATIONS:  206910
        NUMBER OF RHS:        1
        NUMBER OF FLOPS:      3.222e+11
        SOLVER ELAPSED TIME:  2.6s

               CONVERGENCE CHECKS FOR EQUILIBRIUM ITERATION     1


 AVERAGE FORCE                       0.00       TIME AVG. FORCE       1.000E-02
 ALL FORCE     RESIDUALS ARE ZERO
 ALL DISP.    INCREMENTS ARE ZERO
 ALL CORRECTION TO DISP.    ARE ZERO
          THERE IS ZERO FORCE     EVERYWHERE

 AVERAGE HEAT FLUX                  0.138       TIME AVG. HEAT FLUX    51.2    
 LARGEST RESIDUAL HEAT FLUX         3.755E-11   AT NODE        286   DOF 11
   INSTANCE: CHD4                                                                            
 LARGEST INCREMENT OF TEMP.         7.310E-03   AT NODE       6679   DOF 11
   INSTANCE: CHD4                                                                            
 LARGEST CORRECTION TO TEMP.       -1.711E-02   AT NODE       3342   DOF 11
   INSTANCE: CHD4                                                                            
          THE HEAT FLUX EQUILIBRIUM RESPONSE WAS LINEAR IN THIS INCREMENT

 ITERATION SUMMARY FOR THE INCREMENT:   1 TOTAL ITERATIONS, OF WHICH
   0 ARE SEVERE DISCONTINUITY ITERATIONS AND  1 ARE EQUILIBRIUM ITERATIONS.

 TIME INCREMENT COMPLETED   720.    ,  FRACTION OF STEP COMPLETED  0.700    
 STEP TIME COMPLETED       5.040E+03,  TOTAL TIME COMPLETED        5.040E+03


  INCREMENT     8 STARTS. ATTEMPT NUMBER  1, TIME INCREMENT   720.    
 
	UNSYMMETRIC NEW DIRECT SPARSE SOLVER RUNNING ON
 	1 HOST x 1 MPI RANK PER HOST x 8 THREADS PER RANK
        NUMBER OF EQUATIONS:  206910
        NUMBER OF RHS:        1
        NUMBER OF FLOPS:      3.222e+11
        SOLVER ELAPSED TIME:  2.6s

               CONVERGENCE CHECKS FOR EQUILIBRIUM ITERATION     1


 AVERAGE FORCE                       0.00       TIME AVG. FORCE       1.000E-02
 ALL FORCE     RESIDUALS ARE ZERO
 ALL DISP.    INCREMENTS ARE ZERO
 ALL CORRECTION TO DISP.    ARE ZERO
          THERE IS ZERO FORCE     EVERYWHERE

 AVERAGE HEAT FLUX                  4.177E-02   TIME AVG. HEAT FLUX    44.8    
 LARGEST RESIDUAL HEAT FLUX         4.253E-11   AT NODE       3265   DOF 11
   INSTANCE: CHD4                                                                            
 LARGEST INCREMENT OF TEMP.         2.256E-03   AT NODE       6662   DOF 11
   INSTANCE: CHD4                                                                            
 LARGEST CORRECTION TO TEMP.       -5.113E-03   AT NODE       3342   DOF 11
   INSTANCE: CHD4                                                                            
          THE HEAT FLUX EQUILIBRIUM RESPONSE WAS LINEAR IN THIS INCREMENT

 ITERATION SUMMARY FOR THE INCREMENT:   1 TOTAL ITERATIONS, OF WHICH
   0 ARE SEVERE DISCONTINUITY ITERATIONS AND  1 ARE EQUILIBRIUM ITERATIONS.

 TIME INCREMENT COMPLETED   720.    ,  FRACTION OF STEP COMPLETED  0.800    
 STEP TIME COMPLETED       5.760E+03,  TOTAL TIME COMPLETED        5.760E+03


  INCREMENT     9 STARTS. ATTEMPT NUMBER  1, TIME INCREMENT   720.    
 
	UNSYMMETRIC NEW DIRECT SPARSE SOLVER RUNNING ON
 	1 HOST x 1 MPI RANK PER HOST x 8 THREADS PER RANK
        NUMBER OF EQUATIONS:  206910
        NUMBER OF RHS:        1
        NUMBER OF FLOPS:      3.222e+11
        SOLVER ELAPSED TIME:  2.6s

               CONVERGENCE CHECKS FOR EQUILIBRIUM ITERATION     1


 AVERAGE FORCE                       0.00       TIME AVG. FORCE       1.000E-02
 ALL FORCE     RESIDUALS ARE ZERO
 ALL DISP.    INCREMENTS ARE ZERO
 ALL CORRECTION TO DISP.    ARE ZERO
          THERE IS ZERO FORCE     EVERYWHERE

 AVERAGE HEAT FLUX                  1.260E-02   TIME AVG. HEAT FLUX    39.8    
 LARGEST RESIDUAL HEAT FLUX        -4.193E-11   AT NODE       3234   DOF 11
   INSTANCE: CHD4                                                                            
 LARGEST INCREMENT OF TEMP.         6.986E-04   AT NODE       6780   DOF 11
   INSTANCE: CHD4                                                                            
 LARGEST CORRECTION TO TEMP.       -1.559E-03   AT NODE       6662   DOF 11
   INSTANCE: CHD4                                                                            
          THE HEAT FLUX EQUILIBRIUM RESPONSE WAS LINEAR IN THIS INCREMENT

 ITERATION SUMMARY FOR THE INCREMENT:   1 TOTAL ITERATIONS, OF WHICH
   0 ARE SEVERE DISCONTINUITY ITERATIONS AND  1 ARE EQUILIBRIUM ITERATIONS.

 TIME INCREMENT COMPLETED   720.    ,  FRACTION OF STEP COMPLETED  0.900    
 STEP TIME COMPLETED       6.480E+03,  TOTAL TIME COMPLETED        6.480E+03


  INCREMENT    10 STARTS. ATTEMPT NUMBER  1, TIME INCREMENT   720.    
 
	UNSYMMETRIC NEW DIRECT SPARSE SOLVER RUNNING ON
 	1 HOST x 1 MPI RANK PER HOST x 8 THREADS PER RANK
        NUMBER OF EQUATIONS:  206910
        NUMBER OF RHS:        1
        NUMBER OF FLOPS:      3.222e+11
        SOLVER ELAPSED TIME:  2.6s

               CONVERGENCE CHECKS FOR EQUILIBRIUM ITERATION     1


 AVERAGE FORCE                       0.00       TIME AVG. FORCE       1.000E-02
 ALL FORCE     RESIDUALS ARE ZERO
 ALL DISP.    INCREMENTS ARE ZERO
 ALL CORRECTION TO DISP.    ARE ZERO
          THERE IS ZERO FORCE     EVERYWHERE

 AVERAGE HEAT FLUX                  3.805E-03   TIME AVG. HEAT FLUX    35.8    
 LARGEST RESIDUAL HEAT FLUX        -3.714E-11   AT NODE       1623   DOF 11
   INSTANCE: CHD4                                                                            
 LARGEST INCREMENT OF TEMP.         2.171E-04   AT NODE       6618   DOF 11
   INSTANCE: CHD4                                                                            
 LARGEST CORRECTION TO TEMP.       -4.818E-04   AT NODE       6638   DOF 11
   INSTANCE: CHD4                                                                            
          THE HEAT FLUX EQUILIBRIUM RESPONSE WAS LINEAR IN THIS INCREMENT

 ITERATION SUMMARY FOR THE INCREMENT:   1 TOTAL ITERATIONS, OF WHICH
   0 ARE SEVERE DISCONTINUITY ITERATIONS AND  1 ARE EQUILIBRIUM ITERATIONS.

 TIME INCREMENT COMPLETED   720.    ,  FRACTION OF STEP COMPLETED   1.00    
 STEP TIME COMPLETED       7.200E+03,  TOTAL TIME COMPLETED        7.200E+03
1

   Abaqus 2023.HF4                                  Date 22-Sep-2024   Time 20:25:57
   For use by AALTO UNIVERSITY under license from Dassault Systemes or its subsidiary.

                                                                                 
                                                                                 
 STEP    2     INCREMENT     1     STEP TIME    0.00    


                        S T E P       2     C O U P L E D - T E M P E R A T U R E - D I S P L A C E M E N T   A N A L Y S I S


                                                                                          

     AUTOMATIC TIME CONTROL WITH -
          A SUGGESTED INITIAL TIME INCREMENT OF                 5.37    
          AND A TOTAL TIME PERIOD OF                            537.    
          THE MINIMUM TIME INCREMENT ALLOWED IS                1.000E-07
          THE MAXIMUM TIME INCREMENT ALLOWED IS                 5.37    

          CREEP AND SWELLING EFFECTS ARE OMITTED IN THIS STEP

     THE SIZE OF THE TIME INCREMENT IS CONTROLLED BY -
          THE TEMPERATURE CHANGE PER INCREMENT NOT EXCEEDING           1.000E+03
          THE RATE DEPENDENCY WILL BE CONSIDERED IN THIS STEP

          CREEP AND SWELLING EFFECTS WILL BE IGNORED.

 CONVERGENCE TOLERANCE PARAMETERS FOR FORCE    
     CRITERION FOR RESIDUAL FORCE     FOR A NONLINEAR PROBLEM          5.000E-03
     CRITERION FOR DISP.    CORRECTION IN A NONLINEAR PROBLEM          1.000E-02
     INIT. VALUE OF TIME AVG. FORCE     IS TIME AVG. FORCE     IN PREVIOUS STEP
     AVERAGE FORCE     IS TIME AVERAGE FORCE    
     ALTERNATE CRIT. FOR RESIDUAL FORCE     FOR A NONLINEAR PROBLEM    2.000E-02
     CRITERION FOR ZERO FORCE     RELATIVE TO TIME AVRG. FORCE         1.000E-05
     CRITERION FOR RESIDUAL FORCE     WHEN THERE IS ZERO FLUX          1.000E-05
     CRITERION FOR DISP.    CORRECTION WHEN THERE IS ZERO FLUX         1.000E-03
     CRITERION FOR RESIDUAL FORCE     FOR A LINEAR INCREMENT           1.000E-08
     FIELD CONVERSION RATIO                                             1.00    
     CRITERION FOR ZERO FORCE     REL. TO TIME AVRG. MAX. FORCE        1.000E-05
     CRITERION FOR ZERO DISP.    RELATIVE TO CHARACTERISTIC LENGTH     1.000E-08

 CONVERGENCE TOLERANCE PARAMETERS FOR HEAT FLUX
     CRITERION FOR RESIDUAL HEAT FLUX FOR A NONLINEAR PROBLEM          5.000E-03
     CRITERION FOR TEMP.    CORRECTION IN A NONLINEAR PROBLEM          1.000E-02
     INIT. VALUE OF TIME AVG. HEAT FLUX IS TIME AVG. HEAT FLUX IN PREVIOUS STEP
     AVERAGE HEAT FLUX IS TIME AVERAGE HEAT FLUX
     ALTERNATE CRIT. FOR RESIDUAL HEAT FLUX FOR A NONLINEAR PROBLEM    2.000E-02
     CRITERION FOR ZERO HEAT FLUX RELATIVE TO TIME AVRG. HEAT FLUX     1.000E-05
     CRITERION FOR RESIDUAL HEAT FLUX WHEN THERE IS ZERO FLUX          1.000E-05
     CRITERION FOR TEMP.    CORRECTION WHEN THERE IS ZERO FLUX         1.000E-03
     CRITERION FOR RESIDUAL HEAT FLUX FOR A LINEAR INCREMENT           1.000E-08
     FIELD CONVERSION RATIO                                             1.00    
     CRITERION FOR ZERO HEAT FLUX REL. TO TIME AVRG. MAX. HEAT FLUX    1.000E-05

     VOLUMETRIC STRAIN COMPATIBILITY TOLERANCE FOR HYBRID SOLIDS       1.000E-05
     AXIAL STRAIN COMPATIBILITY TOLERANCE FOR HYBRID BEAMS             1.000E-05
     TRANS. SHEAR STRAIN COMPATIBILITY TOLERANCE FOR HYBRID BEAMS      1.000E-05
     SOFT CONTACT CONSTRAINT COMPATIBILITY TOLERANCE FOR P>P0          5.000E-03
     SOFT CONTACT CONSTRAINT COMPATIBILITY TOLERANCE FOR P=0.0         0.100    
     CONTACT FORCE ERROR TOLERANCE FOR CONVERT SDI=YES                 1.00    
     DISPLACEMENT COMPATIBILITY TOLERANCE FOR DCOUP ELEMENTS           1.000E-05
     ROTATION COMPATIBILITY TOLERANCE FOR DCOUP ELEMENTS               1.000E-05

 EQUILIBRIUM WILL BE CHECKED FOR SEVERE DISCONTINUITY ITERATIONS

 TIME INCREMENTATION CONTROL PARAMETERS:
     FIRST EQUILIBRIUM ITERATION FOR CONSECUTIVE DIVERGENCE CHECK              4
     EQUILIBRIUM ITERATION AT WHICH LOG. CONVERGENCE RATE CHECK BEGINS         8
     EQUILIBRIUM ITERATION AFTER WHICH ALTERNATE RESIDUAL IS USED              9
     MAXIMUM EQUILIBRIUM ITERATIONS ALLOWED                                   16
     EQUILIBRIUM ITERATION COUNT FOR CUT-BACK IN NEXT INCREMENT               10
     MAXIMUM EQUILIB. ITERS IN TWO INCREMENTS FOR TIME INCREMENT INCREASE      4
     MAXIMUM ITERATIONS FOR SEVERE DISCONTINUITIES                            50
     MAXIMUM ATTEMPTS ALLOWED IN AN INCREMENT                                  5
     MAXIMUM DISCON. ITERS IN TWO INCREMENTS FOR TIME INCREMENT INCREASE      50
     MAXIMUM CONTACT AUGMENTATIONS FOR *SURFACE BEHAVIOR,AUGMENTED LAGRANGE   50
     CONSECUTIVE INCS MEETING TIME INTEG. TOL. FOR TIME INC. INCREASE          3
     CUT-BACK FACTOR AFTER DIVERGENCE                                 0.2500    
     CUT-BACK FACTOR FOR TOO SLOW CONVERGENCE                         0.5000    
     CUT-BACK FACTOR AFTER TOO MANY EQUILIBRIUM ITERATIONS            0.7500    
     CUT-BACK FACTOR AFTER TOO MANY SEVERE DISCONTINUITY ITERATIONS   0.2500    
     CUT-BACK FACTOR AFTER PROBLEMS IN ELEMENT ASSEMBLY               0.2500    
     INCREASE FACTOR AFTER TWO INCREMENTS THAT CONVERGE QUICKLY        1.500    
     MAX. TIME INCREMENT INCREASE FACTOR ALLOWED                       1.500    
     MAX. TIME INCREMENT INCREASE FACTOR ALLOWED (DYNAMICS)            1.250    
     MAX. TIME INCREMENT INCREASE FACTOR ALLOWED (DIFFUSION)           2.000    
     MINIMUM TIME INCREMENT RATIO FOR EXTRAPOLATION TO OCCUR          0.1000    
     CUT-BACK FACTOR WHEN TIME INTEGRATION ACCURACY TOL. EXCEEDED     0.8500    
     MAX. RATIO OF TIME INTEG. MEASURE TO TOL. FOR TIME INC. INCREASE 0.7500    
     INCREASE FACTOR FOR TIME INCREMENT WHEN POSSIBLE                 0.8000    
     MIN. TIME INC. INCREASE FACTOR IN LINEAR TRANSIENT PROBLEMS      0.9500    
     MAX. RATIO OF TIME INCREMENT TO STABILITY LIMIT                   1.000    
     FRACTION OF STABILITY LIMIT FOR NEW TIME INCREMENT               0.9500    
     TIME INCREMENT INCREASE FACTOR BEFORE A TIME POINT                1.000    
     GLOBAL STABILIZATION CONTROL IS NOT USED

          PRINT OF INCREMENT NUMBER, TIME, ETC., EVERY    1  INCREMENTS

     THE MAXIMUM NUMBER OF INCREMENTS IN THIS STEP IS                 1000000

          LARGE DISPLACEMENT THEORY WILL BE USED

          UNSYMMETRIC MATRIX STORAGE AND SOLUTION WILL BE USED

     LINEAR EXTRAPOLATION WILL BE USED

     CHARACTERISTIC ELEMENT LENGTH     1.943E-04

     DETAILS REGARDING ACTUAL SOLUTION WAVEFRONT REQUESTED

     DETAILED OUTPUT OF DIAGNOSTICS TO DATABASE REQUESTED

     PRINT OF INCREMENT NUMBER, TIME, ETC., TO THE MESSAGE FILE EVERY     1  INCREMENTS

     ELEMENT OPERATIONS WILL BE CARRIED OUT IN PARALLEL USING   8 THREADS ON 1 DOMAIN

     COLLECTING STEP CONSTRAINT INFORMATION FOR OVERCONSTRAINT CHECKS


  INCREMENT     1 STARTS. ATTEMPT NUMBER  1, TIME INCREMENT   5.37    
 
     INITIAL ELEMENT LOAD BALANCE
            DOMAIN    1     THREAD    NUMBER OF ELEMENTS
                              1            8000
                              2            8304
                              3            8232
                              4            8328
                              5            8176
                              6            8240
                              7            8180
                              8            8248
 
	UNSYMMETRIC NEW DIRECT SPARSE SOLVER RUNNING ON
 	1 HOST x 1 MPI RANK PER HOST x 8 THREADS PER RANK
        NUMBER OF EQUATIONS:  206910
        NUMBER OF RHS:        1
        NUMBER OF FLOPS:      3.222e+11
        SOLVER ELAPSED TIME:  2.6s

               CONVERGENCE CHECKS FOR EQUILIBRIUM ITERATION     1


 AVERAGE FORCE                      2.964E-02   TIME AVG. FORCE       2.964E-02
 LARGEST SCALED RESIDUAL FORCE      9.499E-12   AT NODE        647   DOF  2
   INSTANCE: CHD4                                                                            
  CORRESPONDING RESIDUAL FORCE      9.499E-12
 LARGEST INCREMENT OF DISP.         1.342E-05   AT NODE         11   DOF  2
   INSTANCE: CHD4                                                                            
 LARGEST CORRECTION TO DISP.        1.342E-05   AT NODE         11   DOF  2
   INSTANCE: CHD4                                                                            
          THE FORCE     EQUILIBRIUM RESPONSE WAS LINEAR IN THIS INCREMENT

 AVERAGE HEAT FLUX                  3.741E-03   TIME AVG. HEAT FLUX   3.741E-03
 LARGEST RESIDUAL HEAT FLUX        -2.520E-11   AT NODE       1607   DOF 11
   INSTANCE: CHD4                                                                            
 LARGEST INCREMENT OF TEMP.         1.593E-06   AT NODE       6618   DOF 11
   INSTANCE: CHD4                                                                            
 LARGEST CORRECTION TO TEMP.        1.593E-06   AT NODE       6618   DOF 11
   INSTANCE: CHD4                                                                            
          THE HEAT FLUX EQUILIBRIUM RESPONSE WAS LINEAR IN THIS INCREMENT

 MAXIMUM NON-PRESCRIBED INCREMENT IN TEMPERATURE IS   1.593E-06

 ITERATION SUMMARY FOR THE INCREMENT:   1 TOTAL ITERATIONS, OF WHICH
   0 ARE SEVERE DISCONTINUITY ITERATIONS AND  1 ARE EQUILIBRIUM ITERATIONS.

 TIME INCREMENT COMPLETED   5.37    ,  FRACTION OF STEP COMPLETED  1.000E-02
 STEP TIME COMPLETED        5.37    ,  TOTAL TIME COMPLETED        7.205E+03


  INCREMENT     2 STARTS. ATTEMPT NUMBER  1, TIME INCREMENT   5.37    
 
	UNSYMMETRIC NEW DIRECT SPARSE SOLVER RUNNING ON
 	1 HOST x 1 MPI RANK PER HOST x 8 THREADS PER RANK
        NUMBER OF EQUATIONS:  206910
        NUMBER OF RHS:        1
        NUMBER OF FLOPS:      3.222e+11
        SOLVER ELAPSED TIME:  2.6s

               CONVERGENCE CHECKS FOR EQUILIBRIUM ITERATION     1


 AVERAGE FORCE                      0.138       TIME AVG. FORCE       8.390E-02
 LARGEST SCALED RESIDUAL FORCE     -2.606E-12   AT NODE        350   DOF  2
   INSTANCE: CHD4                                                                            
  CORRESPONDING RESIDUAL FORCE     -2.606E-12
 LARGEST INCREMENT OF DISP.         1.342E-05   AT NODE         11   DOF  2
   INSTANCE: CHD4                                                                            
 LARGEST CORRECTION TO DISP.       -1.282E-17   AT NODE       1204   DOF  1
   INSTANCE: CHD4                                                                            
          THE FORCE     EQUILIBRIUM RESPONSE WAS LINEAR IN THIS INCREMENT

 AVERAGE HEAT FLUX                  4.061E-02   TIME AVG. HEAT FLUX   2.217E-02
 LARGEST RESIDUAL HEAT FLUX         6.807E-07   AT NODE      14157   DOF 12
   INSTANCE: CHD4                                                                            
 LARGEST INCREMENT OF TEMP.        -7.791E-03   AT NODE      19620   DOF 11
   INSTANCE: CHD4                                                                            
 LARGEST CORRECTION TO TEMP.       -7.791E-03   AT NODE      19620   DOF 11
   INSTANCE: CHD4                                                                            
 ESTIMATE OF TEMP.    CORRECTION    3.921E-10
 HEAT FLUX EQUILIB. ACCEPTED BASED ON SMALL RESIDUAL AND ESTIMATED CORRECTION

 MAXIMUM NON-PRESCRIBED INCREMENT IN TEMPERATURE IS  -7.791E-03

 ITERATION SUMMARY FOR THE INCREMENT:   1 TOTAL ITERATIONS, OF WHICH
   0 ARE SEVERE DISCONTINUITY ITERATIONS AND  1 ARE EQUILIBRIUM ITERATIONS.

 TIME INCREMENT COMPLETED   5.37    ,  FRACTION OF STEP COMPLETED  2.000E-02
 STEP TIME COMPLETED        10.7    ,  TOTAL TIME COMPLETED        7.211E+03


  INCREMENT     3 STARTS. ATTEMPT NUMBER  1, TIME INCREMENT   5.37    
 
	UNSYMMETRIC NEW DIRECT SPARSE SOLVER RUNNING ON
 	1 HOST x 1 MPI RANK PER HOST x 8 THREADS PER RANK
        NUMBER OF EQUATIONS:  206910
        NUMBER OF RHS:        1
        NUMBER OF FLOPS:      3.222e+11
        SOLVER ELAPSED TIME:  2.6s

               CONVERGENCE CHECKS FOR EQUILIBRIUM ITERATION     1


 AVERAGE FORCE                      0.207       TIME AVG. FORCE       0.125    
 LARGEST SCALED RESIDUAL FORCE     -3.745E-12   AT NODE        316   DOF  2
   INSTANCE: CHD4                                                                            
  CORRESPONDING RESIDUAL FORCE     -3.745E-12
 LARGEST INCREMENT OF DISP.         1.342E-05   AT NODE         11   DOF  2
   INSTANCE: CHD4                                                                            
 LARGEST CORRECTION TO DISP.        9.589E-13   AT NODE       9826   DOF  2
   INSTANCE: CHD4                                                                            
          THE FORCE     EQUILIBRIUM RESPONSE WAS LINEAR IN THIS INCREMENT

 AVERAGE HEAT FLUX                  7.910E-02   TIME AVG. HEAT FLUX   4.115E-02
 LARGEST RESIDUAL HEAT FLUX        -2.014E-06   AT NODE        702   DOF 12
   INSTANCE: CHD4                                                                            
 LARGEST INCREMENT OF TEMP.        -1.035E-02   AT NODE      19620   DOF 11
   INSTANCE: CHD4                                                                            
 LARGEST CORRECTION TO TEMP.       -2.626E-03   AT NODE      20763   DOF 11
   INSTANCE: CHD4                                                                            
 ESTIMATE OF TEMP.    CORRECTION   -4.081E-10
 HEAT FLUX EQUILIB. ACCEPTED BASED ON SMALL RESIDUAL AND ESTIMATED CORRECTION

 MAXIMUM NON-PRESCRIBED INCREMENT IN TEMPERATURE IS  -1.035E-02

 ITERATION SUMMARY FOR THE INCREMENT:   1 TOTAL ITERATIONS, OF WHICH
   0 ARE SEVERE DISCONTINUITY ITERATIONS AND  1 ARE EQUILIBRIUM ITERATIONS.

 TIME INCREMENT COMPLETED   5.37    ,  FRACTION OF STEP COMPLETED  3.000E-02
 STEP TIME COMPLETED        16.1    ,  TOTAL TIME COMPLETED        7.216E+03


  INCREMENT     4 STARTS. ATTEMPT NUMBER  1, TIME INCREMENT   5.37    
 
	UNSYMMETRIC NEW DIRECT SPARSE SOLVER RUNNING ON
 	1 HOST x 1 MPI RANK PER HOST x 8 THREADS PER RANK
        NUMBER OF EQUATIONS:  206910
        NUMBER OF RHS:        1
        NUMBER OF FLOPS:      3.222e+11
        SOLVER ELAPSED TIME:  2.6s

               CONVERGENCE CHECKS FOR EQUILIBRIUM ITERATION     1


 AVERAGE FORCE                      0.276       TIME AVG. FORCE       0.163    
 LARGEST SCALED RESIDUAL FORCE      3.025E-12   AT NODE        318   DOF  2
   INSTANCE: CHD4                                                                            
  CORRESPONDING RESIDUAL FORCE      3.025E-12
 LARGEST INCREMENT OF DISP.         1.342E-05   AT NODE         11   DOF  2
   INSTANCE: CHD4                                                                            
 LARGEST CORRECTION TO DISP.        3.198E-12   AT NODE       9826   DOF  2
   INSTANCE: CHD4                                                                            
          THE FORCE     EQUILIBRIUM RESPONSE WAS LINEAR IN THIS INCREMENT

 AVERAGE HEAT FLUX                  0.118       TIME AVG. HEAT FLUX   6.037E-02
 LARGEST RESIDUAL HEAT FLUX        -4.328E-06   AT NODE        702   DOF 12
   INSTANCE: CHD4                                                                            
 LARGEST INCREMENT OF TEMP.        -1.133E-02   AT NODE      19620   DOF 11
   INSTANCE: CHD4                                                                            
 LARGEST CORRECTION TO TEMP.       -1.173E-03   AT NODE      12208   DOF 11
   INSTANCE: CHD4                                                                            
 ESTIMATE OF TEMP.    CORRECTION   -4.080E-10
 HEAT FLUX EQUILIB. ACCEPTED BASED ON SMALL RESIDUAL AND ESTIMATED CORRECTION

 MAXIMUM NON-PRESCRIBED INCREMENT IN TEMPERATURE IS  -1.133E-02

 ITERATION SUMMARY FOR THE INCREMENT:   1 TOTAL ITERATIONS, OF WHICH
   0 ARE SEVERE DISCONTINUITY ITERATIONS AND  1 ARE EQUILIBRIUM ITERATIONS.

 TIME INCREMENT COMPLETED   5.37    ,  FRACTION OF STEP COMPLETED  4.000E-02
 STEP TIME COMPLETED        21.5    ,  TOTAL TIME COMPLETED        7.221E+03


  INCREMENT     5 STARTS. ATTEMPT NUMBER  1, TIME INCREMENT   5.37    
 
	UNSYMMETRIC NEW DIRECT SPARSE SOLVER RUNNING ON
 	1 HOST x 1 MPI RANK PER HOST x 8 THREADS PER RANK
        NUMBER OF EQUATIONS:  206910
        NUMBER OF RHS:        1
        NUMBER OF FLOPS:      3.222e+11
        SOLVER ELAPSED TIME:  1.8s

               CONVERGENCE CHECKS FOR EQUILIBRIUM ITERATION     1


 AVERAGE FORCE                      0.345       TIME AVG. FORCE       0.199    
 LARGEST SCALED RESIDUAL FORCE      2.940E-12   AT NODE        293   DOF  2
   INSTANCE: CHD4                                                                            
  CORRESPONDING RESIDUAL FORCE      2.940E-12
 LARGEST INCREMENT OF DISP.         1.342E-05   AT NODE         11   DOF  2
   INSTANCE: CHD4                                                                            
 LARGEST CORRECTION TO DISP.        5.124E-12   AT NODE       9826   DOF  2
   INSTANCE: CHD4                                                                            
          THE FORCE     EQUILIBRIUM RESPONSE WAS LINEAR IN THIS INCREMENT

 AVERAGE HEAT FLUX                  0.158       TIME AVG. HEAT FLUX   7.982E-02
 LARGEST RESIDUAL HEAT FLUX        -7.376E-06   AT NODE        702   DOF 12
   INSTANCE: CHD4                                                                            
 LARGEST INCREMENT OF TEMP.        -1.177E-02   AT NODE      19620   DOF 11
   INSTANCE: CHD4                                                                            
 LARGEST CORRECTION TO TEMP.       -6.462E-04   AT NODE       7595   DOF 11
   INSTANCE: CHD4                                                                            
 ESTIMATE OF TEMP.    CORRECTION   -3.975E-10
 HEAT FLUX EQUILIB. ACCEPTED BASED ON SMALL RESIDUAL AND ESTIMATED CORRECTION

 MAXIMUM NON-PRESCRIBED INCREMENT IN TEMPERATURE IS  -1.177E-02

 ITERATION SUMMARY FOR THE INCREMENT:   1 TOTAL ITERATIONS, OF WHICH
   0 ARE SEVERE DISCONTINUITY ITERATIONS AND  1 ARE EQUILIBRIUM ITERATIONS.

 TIME INCREMENT COMPLETED   5.37    ,  FRACTION OF STEP COMPLETED  5.000E-02
 STEP TIME COMPLETED        26.9    ,  TOTAL TIME COMPLETED        7.227E+03


  INCREMENT     6 STARTS. ATTEMPT NUMBER  1, TIME INCREMENT   5.37    
 
	UNSYMMETRIC NEW DIRECT SPARSE SOLVER RUNNING ON
 	1 HOST x 1 MPI RANK PER HOST x 8 THREADS PER RANK
        NUMBER OF EQUATIONS:  206910
        NUMBER OF RHS:        1
        NUMBER OF FLOPS:      3.222e+11
        SOLVER ELAPSED TIME:  1.9s

               CONVERGENCE CHECKS FOR EQUILIBRIUM ITERATION     1


 AVERAGE FORCE                      0.414       TIME AVG. FORCE       0.235    
 LARGEST SCALED RESIDUAL FORCE      3.865E-12   AT NODE        307   DOF  2
   INSTANCE: CHD4                                                                            
  CORRESPONDING RESIDUAL FORCE      3.865E-12
 LARGEST INCREMENT OF DISP.         1.342E-05   AT NODE         11   DOF  2
   INSTANCE: CHD4                                                                            
 LARGEST CORRECTION TO DISP.        7.060E-12   AT NODE       9826   DOF  2
   INSTANCE: CHD4                                                                            
          THE FORCE     EQUILIBRIUM RESPONSE WAS LINEAR IN THIS INCREMENT

 AVERAGE HEAT FLUX                  0.198       TIME AVG. HEAT FLUX   0.100    
 LARGEST RESIDUAL HEAT FLUX        -1.108E-05   AT NODE        702   DOF 12
   INSTANCE: CHD4                                                                            
 LARGEST INCREMENT OF TEMP.        -1.201E-02   AT NODE      19620   DOF 11
   INSTANCE: CHD4                                                                            
 LARGEST CORRECTION TO TEMP.       -5.567E-04   AT NODE       7595   DOF 11
   INSTANCE: CHD4                                                                            
 ESTIMATE OF TEMP.    CORRECTION   -5.325E-10
 HEAT FLUX EQUILIB. ACCEPTED BASED ON SMALL RESIDUAL AND ESTIMATED CORRECTION

 MAXIMUM NON-PRESCRIBED INCREMENT IN TEMPERATURE IS  -1.201E-02

 ITERATION SUMMARY FOR THE INCREMENT:   1 TOTAL ITERATIONS, OF WHICH
   0 ARE SEVERE DISCONTINUITY ITERATIONS AND  1 ARE EQUILIBRIUM ITERATIONS.

 TIME INCREMENT COMPLETED   5.37    ,  FRACTION OF STEP COMPLETED  6.000E-02
 STEP TIME COMPLETED        32.2    ,  TOTAL TIME COMPLETED        7.232E+03


  INCREMENT     7 STARTS. ATTEMPT NUMBER  1, TIME INCREMENT   5.37    
 
	UNSYMMETRIC NEW DIRECT SPARSE SOLVER RUNNING ON
 	1 HOST x 1 MPI RANK PER HOST x 8 THREADS PER RANK
        NUMBER OF EQUATIONS:  206910
        NUMBER OF RHS:        1
        NUMBER OF FLOPS:      3.222e+11
        SOLVER ELAPSED TIME:  1.9s

               CONVERGENCE CHECKS FOR EQUILIBRIUM ITERATION     1


 AVERAGE FORCE                      0.484       TIME AVG. FORCE       0.271    
 LARGEST SCALED RESIDUAL FORCE     -3.128E-12   AT NODE       1558   DOF  2
   INSTANCE: CHD4                                                                            
  CORRESPONDING RESIDUAL FORCE     -3.128E-12
 LARGEST INCREMENT OF DISP.         1.342E-05   AT NODE         11   DOF  2
   INSTANCE: CHD4                                                                            
 LARGEST CORRECTION TO DISP.        9.012E-12   AT NODE       9826   DOF  2
   INSTANCE: CHD4                                                                            
          THE FORCE     EQUILIBRIUM RESPONSE WAS LINEAR IN THIS INCREMENT

 AVERAGE HEAT FLUX                  0.239       TIME AVG. HEAT FLUX   0.119    
 LARGEST RESIDUAL HEAT FLUX        -1.538E-05   AT NODE        702   DOF 12
   INSTANCE: CHD4                                                                            
 LARGEST INCREMENT OF TEMP.        -1.214E-02   AT NODE      19620   DOF 11
   INSTANCE: CHD4                                                                            
 LARGEST CORRECTION TO TEMP.       -4.833E-04   AT NODE       6699   DOF 11
   INSTANCE: CHD4                                                                            
 ESTIMATE OF TEMP.    CORRECTION   -6.628E-10
 HEAT FLUX EQUILIB. ACCEPTED BASED ON SMALL RESIDUAL AND ESTIMATED CORRECTION

 MAXIMUM NON-PRESCRIBED INCREMENT IN TEMPERATURE IS  -1.214E-02

 ITERATION SUMMARY FOR THE INCREMENT:   1 TOTAL ITERATIONS, OF WHICH
   0 ARE SEVERE DISCONTINUITY ITERATIONS AND  1 ARE EQUILIBRIUM ITERATIONS.

 TIME INCREMENT COMPLETED   5.37    ,  FRACTION OF STEP COMPLETED  7.000E-02
 STEP TIME COMPLETED        37.6    ,  TOTAL TIME COMPLETED        7.238E+03


  INCREMENT     8 STARTS. ATTEMPT NUMBER  1, TIME INCREMENT   5.37    
 
	UNSYMMETRIC NEW DIRECT SPARSE SOLVER RUNNING ON
 	1 HOST x 1 MPI RANK PER HOST x 8 THREADS PER RANK
        NUMBER OF EQUATIONS:  206910
        NUMBER OF RHS:        1
        NUMBER OF FLOPS:      3.222e+11
        SOLVER ELAPSED TIME:  1.7s

               CONVERGENCE CHECKS FOR EQUILIBRIUM ITERATION     1


 AVERAGE FORCE                      0.553       TIME AVG. FORCE       0.306    
 LARGEST SCALED RESIDUAL FORCE     -3.190E-12   AT NODE        305   DOF  2
   INSTANCE: CHD4                                                                            
  CORRESPONDING RESIDUAL FORCE     -3.190E-12
 LARGEST INCREMENT OF DISP.         1.342E-05   AT NODE         11   DOF  2
   INSTANCE: CHD4                                                                            
 LARGEST CORRECTION TO DISP.        1.098E-11   AT NODE       9776   DOF  2
   INSTANCE: CHD4                                                                            
          THE FORCE     EQUILIBRIUM RESPONSE WAS LINEAR IN THIS INCREMENT

 AVERAGE HEAT FLUX                  0.281       TIME AVG. HEAT FLUX   0.140    
 LARGEST RESIDUAL HEAT FLUX        -2.022E-05   AT NODE        702   DOF 12
   INSTANCE: CHD4                                                                            
 LARGEST INCREMENT OF TEMP.        -1.223E-02   AT NODE      19620   DOF 11
   INSTANCE: CHD4                                                                            
 LARGEST CORRECTION TO TEMP.        4.271E-04   AT NODE       3874   DOF 11
   INSTANCE: CHD4                                                                            
 ESTIMATE OF TEMP.    CORRECTION    7.942E-10
 HEAT FLUX EQUILIB. ACCEPTED BASED ON SMALL RESIDUAL AND ESTIMATED CORRECTION

 MAXIMUM NON-PRESCRIBED INCREMENT IN TEMPERATURE IS  -1.223E-02

 ITERATION SUMMARY FOR THE INCREMENT:   1 TOTAL ITERATIONS, OF WHICH
   0 ARE SEVERE DISCONTINUITY ITERATIONS AND  1 ARE EQUILIBRIUM ITERATIONS.

 TIME INCREMENT COMPLETED   5.37    ,  FRACTION OF STEP COMPLETED  8.000E-02
 STEP TIME COMPLETED        43.0    ,  TOTAL TIME COMPLETED        7.243E+03


  INCREMENT     9 STARTS. ATTEMPT NUMBER  1, TIME INCREMENT   5.37    
 
	UNSYMMETRIC NEW DIRECT SPARSE SOLVER RUNNING ON
 	1 HOST x 1 MPI RANK PER HOST x 8 THREADS PER RANK
        NUMBER OF EQUATIONS:  206910
        NUMBER OF RHS:        1
        NUMBER OF FLOPS:      3.222e+11
        SOLVER ELAPSED TIME:  1.8s

               CONVERGENCE CHECKS FOR EQUILIBRIUM ITERATION     1


 AVERAGE FORCE                      0.622       TIME AVG. FORCE       0.341    
 LARGEST SCALED RESIDUAL FORCE     -2.942E-12   AT NODE        290   DOF  2
   INSTANCE: CHD4                                                                            
  CORRESPONDING RESIDUAL FORCE     -2.942E-12
 LARGEST INCREMENT OF DISP.         1.342E-05   AT NODE         11   DOF  2
   INSTANCE: CHD4                                                                            
 LARGEST CORRECTION TO DISP.        1.298E-11   AT NODE       9776   DOF  2
   INSTANCE: CHD4                                                                            
          THE FORCE     EQUILIBRIUM RESPONSE WAS LINEAR IN THIS INCREMENT

 AVERAGE HEAT FLUX                  0.323       TIME AVG. HEAT FLUX   0.160    
 LARGEST RESIDUAL HEAT FLUX        -2.556E-05   AT NODE        702   DOF 12
   INSTANCE: CHD4                                                                            
 LARGEST INCREMENT OF TEMP.        -1.230E-02   AT NODE      21906   DOF 11
   INSTANCE: CHD4                                                                            
 LARGEST CORRECTION TO TEMP.        3.817E-04   AT NODE       3874   DOF 11
   INSTANCE: CHD4                                                                            
 ESTIMATE OF TEMP.    CORRECTION    9.237E-10
 HEAT FLUX EQUILIB. ACCEPTED BASED ON SMALL RESIDUAL AND ESTIMATED CORRECTION

 MAXIMUM NON-PRESCRIBED INCREMENT IN TEMPERATURE IS  -1.230E-02

 ITERATION SUMMARY FOR THE INCREMENT:   1 TOTAL ITERATIONS, OF WHICH
   0 ARE SEVERE DISCONTINUITY ITERATIONS AND  1 ARE EQUILIBRIUM ITERATIONS.

 TIME INCREMENT COMPLETED   5.37    ,  FRACTION OF STEP COMPLETED  9.000E-02
 STEP TIME COMPLETED        48.3    ,  TOTAL TIME COMPLETED        7.248E+03


  INCREMENT    10 STARTS. ATTEMPT NUMBER  1, TIME INCREMENT   5.37    
 
	UNSYMMETRIC NEW DIRECT SPARSE SOLVER RUNNING ON
 	1 HOST x 1 MPI RANK PER HOST x 8 THREADS PER RANK
        NUMBER OF EQUATIONS:  206910
        NUMBER OF RHS:        1
        NUMBER OF FLOPS:      3.222e+11
        SOLVER ELAPSED TIME:  1.7s

               CONVERGENCE CHECKS FOR EQUILIBRIUM ITERATION     1


 AVERAGE FORCE                      0.691       TIME AVG. FORCE       0.376    
 LARGEST SCALED RESIDUAL FORCE     -3.448E-12   AT NODE        295   DOF  2
   INSTANCE: CHD4                                                                            
  CORRESPONDING RESIDUAL FORCE     -3.448E-12
 LARGEST INCREMENT OF DISP.         1.342E-05   AT NODE         11   DOF  2
   INSTANCE: CHD4                                                                            
 LARGEST CORRECTION TO DISP.        1.500E-11   AT NODE       9776   DOF  2
   INSTANCE: CHD4                                                                            
          THE FORCE     EQUILIBRIUM RESPONSE WAS LINEAR IN THIS INCREMENT

 AVERAGE HEAT FLUX                  0.366       TIME AVG. HEAT FLUX   0.181    
 LARGEST RESIDUAL HEAT FLUX        -3.136E-05   AT NODE        702   DOF 12
   INSTANCE: CHD4                                                                            
 LARGEST INCREMENT OF TEMP.        -1.238E-02   AT NODE      21906   DOF 11
   INSTANCE: CHD4                                                                            
 LARGEST CORRECTION TO TEMP.        3.412E-04   AT NODE       3874   DOF 11
   INSTANCE: CHD4                                                                            
 ESTIMATE OF TEMP.    CORRECTION    1.042E-09
 HEAT FLUX EQUILIB. ACCEPTED BASED ON SMALL RESIDUAL AND ESTIMATED CORRECTION

 MAXIMUM NON-PRESCRIBED INCREMENT IN TEMPERATURE IS  -1.238E-02

 ITERATION SUMMARY FOR THE INCREMENT:   1 TOTAL ITERATIONS, OF WHICH
   0 ARE SEVERE DISCONTINUITY ITERATIONS AND  1 ARE EQUILIBRIUM ITERATIONS.

 TIME INCREMENT COMPLETED   5.37    ,  FRACTION OF STEP COMPLETED  0.100    
 STEP TIME COMPLETED        53.7    ,  TOTAL TIME COMPLETED        7.254E+03


  INCREMENT    11 STARTS. ATTEMPT NUMBER  1, TIME INCREMENT   5.37    
 
	UNSYMMETRIC NEW DIRECT SPARSE SOLVER RUNNING ON
 	1 HOST x 1 MPI RANK PER HOST x 8 THREADS PER RANK
        NUMBER OF EQUATIONS:  206910
        NUMBER OF RHS:        1
        NUMBER OF FLOPS:      3.222e+11
        SOLVER ELAPSED TIME:  1.7s

               CONVERGENCE CHECKS FOR EQUILIBRIUM ITERATION     1


 AVERAGE FORCE                      0.760       TIME AVG. FORCE       0.411    
 LARGEST SCALED RESIDUAL FORCE     -2.821E-12   AT NODE        329   DOF  2
   INSTANCE: CHD4                                                                            
  CORRESPONDING RESIDUAL FORCE     -2.821E-12
 LARGEST INCREMENT OF DISP.         1.342E-05   AT NODE         11   DOF  2
   INSTANCE: CHD4                                                                            
 LARGEST CORRECTION TO DISP.        1.706E-11   AT NODE       9776   DOF  2
   INSTANCE: CHD4                                                                            
          THE FORCE     EQUILIBRIUM RESPONSE WAS LINEAR IN THIS INCREMENT

 AVERAGE HEAT FLUX                  0.410       TIME AVG. HEAT FLUX   0.201    
 LARGEST RESIDUAL HEAT FLUX        -3.758E-05   AT NODE        702   DOF 12
   INSTANCE: CHD4                                                                            
 LARGEST INCREMENT OF TEMP.        -1.245E-02   AT NODE      21906   DOF 11
   INSTANCE: CHD4                                                                            
 LARGEST CORRECTION TO TEMP.        3.051E-04   AT NODE       3874   DOF 11
   INSTANCE: CHD4                                                                            
 ESTIMATE OF TEMP.    CORRECTION    1.146E-09
 HEAT FLUX EQUILIB. ACCEPTED BASED ON SMALL RESIDUAL AND ESTIMATED CORRECTION

 MAXIMUM NON-PRESCRIBED INCREMENT IN TEMPERATURE IS  -1.245E-02

 ITERATION SUMMARY FOR THE INCREMENT:   1 TOTAL ITERATIONS, OF WHICH
   0 ARE SEVERE DISCONTINUITY ITERATIONS AND  1 ARE EQUILIBRIUM ITERATIONS.

 TIME INCREMENT COMPLETED   5.37    ,  FRACTION OF STEP COMPLETED  0.110    
 STEP TIME COMPLETED        59.1    ,  TOTAL TIME COMPLETED        7.259E+03


  INCREMENT    12 STARTS. ATTEMPT NUMBER  1, TIME INCREMENT   5.37    
