 Abaqus/Standard 2023.HF4                  DATE 22-Sep-2024 TIME 20:25:12
 SUMMARY OF JOB INFORMATION:
 STEP  INC ATT SEVERE EQUIL TOTAL  TOTAL      STEP       INC OF       DOF    IF
               DISCON ITERS ITERS  TIME/    TIME/LPF    TIME/LPF    MONITOR RIKS
               ITERS               FREQ
   1     1   1     0     1     1  720.       720.       720.0     
   1     2   1     0     1     1  1.44e+03   1.44e+03   720.0     
   1     3   1     0     1     1  2.16e+03   2.16e+03   720.0     
   1     4   1     0     1     1  2.88e+03   2.88e+03   720.0     
   1     5   1     0     1     1  3.60e+03   3.60e+03   720.0     
   1     6   1     0     1     1  4.32e+03   4.32e+03   720.0     
   1     7   1     0     1     1  5.04e+03   5.04e+03   720.0     
   1     8   1     0     1     1  5.76e+03   5.76e+03   720.0     
   1     9   1     0     1     1  6.48e+03   6.48e+03   720.0     
   1    10   1     0     1     1  7.20e+03   7.20e+03   720.0     
   2     1   1     0     1     1  7.21e+03   5.37       5.370     
   2     2   1     0     1     1  7.21e+03   10.7       5.370     
   2     3   1     0     1     1  7.22e+03   16.1       5.370     
   2     4   1     0     1     1  7.22e+03   21.5       5.370     
   2     5   1     0     1     1  7.23e+03   26.9       5.370     
   2     6   1     0     1     1  7.23e+03   32.2       5.370     
   2     7   1     0     1     1  7.24e+03   37.6       5.370     
   2     8   1     0     1     1  7.24e+03   43.0       5.370     
   2     9   1     0     1     1  7.25e+03   48.3       5.370     
   2    10   1     0     1     1  7.25e+03   53.7       5.370     
   2    11   1     0     1     1  7.26e+03   59.1       5.370     
