*HEADING
**
** substructure generation for surface_mount.inp
** Units mm, MPa, sec, Celsius
**
*NODE,NSET=NALL
       1,          0.,          0.,    -2.06591
       2,     1.30048,          0.,    -2.06591
       3,     2.60096,          0.,    -2.06591
       4,     3.90144,          0.,    -2.06591
       5,     4.55168,          0.,    -2.06591
       6,     5.20192,          0.,    -2.06591
       7,     5.67943,          0.,    -2.06591
       8,     6.02487,          0.,    -2.06591
       9,     6.32968,          0.,    -2.06591
      10,     6.67004,          0.,    -2.06591
      11,      7.0104,          0.,    -2.06591
      12,     7.43857,          0.,    -2.06591
      13,     7.86674,          0.,    -2.06591
      14,     8.09159,          0.,    -2.06591
      15,     8.31644,          0.,    -2.06591
      16,     8.54132,          0.,     -2.0659
      17,     8.75082, -1.05977E-5,     -2.0659
      18,     8.95267, -1.05977E-5,     -2.0659
      19,     9.15559, -1.05977E-5,     -2.0659
      20,     9.58376, -1.36256E-5,     -2.0659
** ... 6667 like lines cut
**
**  ELEMENT DEFINITIONS
**
*ELEMENT, TYPE=C3D6, ELSET=SOLDERC
 3121, 3904, 4232, 4416, 3905, 4233, 4417
 3122, 3906, 4234, 4418, 3907, 4235, 4419
 3123, 3908, 4236, 4420, 3909, 4237, 4421
 3124, 3910, 4238, 4422, 3911, 4239, 4423
 3125, 3912, 4240, 4424, 3913, 4241, 4425
 3126, 3914, 4242, 4426, 3915, 4243, 4427
 3127, 3916, 4244, 4428, 3917, 4245, 4429
 3128, 3918, 4246, 4430, 3919, 4247, 4431
 3129, 3920, 4248, 4432, 3921, 4249, 4433
 3130, 3922, 4250, 4434, 3923, 4251, 4435
 3131, 3924, 4252, 4436, 3925, 4253, 4437
 3132, 3926, 4254, 4438, 3927, 4255, 4439
 3133, 3928, 4256, 4440, 3929, 4257, 4441
 3134, 3930, 4258, 4442, 3931, 4259, 4443
 3135, 4260, 3932, 4444, 4261, 3933, 4445
 3136, 4262, 3934, 4446, 4263, 3935, 4447
 3137, 4264, 3936, 4448, 4265, 3937, 4449
 3138, 4266, 3938, 4450, 4267, 3939, 4451
 3139, 4268, 3940, 4452, 4269, 3941, 4453
 3140, 4270, 3942, 4454, 4271, 3943, 4455
** ... 72 like lines cut
*ELEMENT, TYPE=C3D6, ELSET=PACKAGE
 4727, 5919, 5920, 5923, 6615, 6616, 6619
 4730, 5915, 5916, 5929, 6611, 6612, 6625
 4740, 5915, 5929, 5942, 6611, 6625, 6638
 4741, 5932, 5926, 5933, 6628, 6622, 6629
 4750, 5942, 5929, 5943, 6638, 6625, 6639
 4751, 5946, 5936, 5947, 6642, 6632, 6643
 4754, 5942, 5943, 5953, 6638, 6639, 6649
 4764, 5942, 5953, 5966, 6638, 6649, 6662
 4765, 5956, 5950, 5957, 6652, 6646, 6653
 4774, 5966, 5953, 5967, 6662, 6649, 6663
 4775, 5970, 5960, 5971, 6666, 6656, 6667
 4778, 5966, 5967, 5977, 6662, 6663, 6673
 4788, 5966, 5977, 5990, 6662, 6673, 6686
 4789, 5980, 5974, 5981, 6676, 6670, 6677
 4798, 5990, 5977, 5991, 6686, 6673, 6687
 4799, 5994, 5984, 5995, 6690, 6680, 6691
 4802, 5990, 5991, 6001, 6686, 6687, 6697
 4812, 5990, 6001, 6014, 6686, 6697, 6710
 4813, 6004, 5998, 6005, 6700, 6694, 6701
 4822, 6014, 6001, 6015, 6710, 6697, 6711
** ... 215 like lines cut
*ELEMENT, TYPE=C3D6, ELSET=BOARD
    1,    8,    9,   25,  937,  938,  954
    2,   20,   21,   36,  949,  950,  965
   14,    4,    5,   49,  933,  934,  978
   15,   22,   23,   54,  951,  952,  983
   36,    4,   49,   82,  933,  978, 1011
   37,   52,   37,   55,  981,  966,  984
   49,   48,   53,   66,  977,  982,  995
   50,   54,   23,   89,  983,  952, 1018
   69,   82,   49,   83, 1011,  978, 1012
   70,   88,   54,   89, 1017,  983, 1018
   71,   86,   67,   91, 1015,  996, 1020
   83,   78,   87,  102, 1007, 1016, 1031
   84,   82,   83,  115, 1011, 1012, 1044
   85,   88,   89,  120, 1017, 1018, 1049
  106,   82,  115,  148, 1011, 1044, 1077
  107,  118,  103,  121, 1047, 1032, 1050
  119,  114,  119,  132, 1043, 1048, 1061
  120,  120,   89,  155, 1049, 1018, 1084
  139,  148,  115,  149, 1077, 1044, 1078
  140,  154,  120,  155, 1083, 1049, 1084
** ... 318 like lines cut
*ELEMENT, TYPE=C3D8R, ELSET=SOLDERC
 2625, 3075, 3076, 3083, 3082, 3720, 3674, 3675, 3721
 2626, 3089, 3090, 3097, 3096, 3722, 3676, 3677, 3723
 2627, 3103, 3104, 3111, 3110, 3724, 3678, 3679, 3725
 2628, 3117, 3118, 3125, 3124, 3726, 3680, 3681, 3727
 2629, 3131, 3132, 3139, 3138, 3728, 3682, 3683, 3729
 2630, 3145, 3146, 3153, 3152, 3730, 3684, 3685, 3731
 2631, 3159, 3160, 3167, 3166, 3732, 3686, 3687, 3733
 2632, 3173, 3174, 3181, 3180, 3734, 3688, 3689, 3735
 2633, 3187, 3188, 3195, 3194, 3736, 3690, 3691, 3737
 2634, 3201, 3202, 3209, 3208, 3738, 3692, 3693, 3739
 2635, 3215, 3216, 3223, 3222, 3740, 3694, 3695, 3741
 2636, 3229, 3230, 3237, 3236, 3742, 3696, 3697, 3743
 2637, 3243, 3244, 3251, 3250, 3744, 3698, 3699, 3745
 2638, 3257, 3258, 3265, 3264, 3746, 3700, 3701, 3747
 2639, 3356, 3357, 3375, 3374, 3748, 3749, 3703, 3702
 2640, 3358, 3359, 3377, 3376, 3750, 3751, 3705, 3704
 2641, 3360, 3361, 3379, 3378, 3752, 3753, 3707, 3706
 2642, 3362, 3363, 3381, 3380, 3754, 3755, 3709, 3708
 2643, 3364, 3365, 3383, 3382, 3756, 3757, 3711, 3710
 2644, 3366, 3367, 3385, 3384, 3758, 3759, 3713, 3712
** ... 233 like lines cut
*ELEMENT, TYPE=C3D8I, ELSET=LEADPADC
 2221, 1887, 1888, 1900, 1899, 3070, 3071, 3078, 3077
 2222, 1888, 1889, 1901, 1900, 3071, 3072, 3079, 3078
 2223, 1889, 1890, 1902, 1901, 3072, 3073, 3080, 3079
 2224, 1890, 1891, 1903, 1902, 3073, 3074, 3081, 3080
 2225, 1891, 1892, 1904, 1903, 3074, 3075, 3082, 3081
 2226, 1892, 1893, 1905, 1904, 3075, 3076, 3083, 3082
 2227, 1917, 1918, 1930, 1929, 3084, 3085, 3092, 3091
 2228, 1918, 1919, 1931, 1930, 3085, 3086, 3093, 3092
 2229, 1919, 1920, 1932, 1931, 3086, 3087, 3094, 3093
 2230, 1920, 1921, 1933, 1932, 3087, 3088, 3095, 3094
 2231, 1921, 1922, 1934, 1933, 3088, 3089, 3096, 3095
 2232, 1922, 1923, 1935, 1934, 3089, 3090, 3097, 3096
 2233, 1953, 1954, 1966, 1965, 3098, 3099, 3106, 3105
 2234, 1954, 1955, 1967, 1966, 3099, 3100, 3107, 3106
 2235, 1955, 1956, 1968, 1967, 3100, 3101, 3108, 3107
 2236, 1956, 1957, 1969, 1968, 3101, 3102, 3109, 3108
 2237, 1957, 1958, 1970, 1969, 3102, 3103, 3110, 3109
 2238, 1958, 1959, 1971, 1970, 3103, 3104, 3111, 3110
 2239, 1983, 1984, 1996, 1995, 3112, 3113, 3120, 3119
 2240, 1984, 1985, 1997, 1996, 3113, 3114, 3121, 3120
** ... 486 like lines cut
*ELEMENT, TYPE=C3D8R, ELSET=PACKAGE
 4728, 5920, 5921, 5924, 5923, 6616, 6617, 6620, 6619
 4729, 5921, 5922, 5925, 5924, 6617, 6618, 6621, 6620
 4731, 5916, 5917, 5930, 5929, 6612, 6613, 6626, 6625
 4732, 5917, 5918, 5931, 5930, 6613, 6614, 6627, 6626
 4733, 5918, 5919, 5932, 5931, 6614, 6615, 6628, 6627
 4734, 5919, 5923, 5926, 5932, 6615, 6619, 6622, 6628
 4735, 5923, 5924, 5927, 5926, 6619, 6620, 6623, 6622
 4736, 5924, 5925, 5928, 5927, 6620, 6621, 6624, 6623
 4737, 5912, 5913, 5940, 5939, 6608, 6609, 6636, 6635
 4738, 5913, 5914, 5941, 5940, 6609, 6610, 6637, 6636
 4739, 5914, 5915, 5942, 5941, 6610, 6611, 6638, 6637
 4742, 5926, 5927, 5934, 5933, 6622, 6623, 6630, 6629
 4743, 5927, 5928, 5935, 5934, 6623, 6624, 6631, 6630
 4744, 5929, 5930, 5944, 5943, 6625, 6626, 6640, 6639
 4745, 5930, 5931, 5945, 5944, 6626, 6627, 6641, 6640
 4746, 5931, 5932, 5946, 5945, 6627, 6628, 6642, 6641
 4747, 5932, 5933, 5936, 5946, 6628, 6629, 6632, 6642
 4748, 5933, 5934, 5937, 5936, 6629, 6630, 6633, 6632
 4749, 5934, 5935, 5938, 5937, 6630, 6631, 6634, 6633
 4752, 5936, 5937, 5948, 5947, 6632, 6633, 6644, 6643
** ... 592 like lines cut
** 5651, 7507, 7508, 7531, 7530, 7973, 7974, 7997, 7996
 5661, 7509, 7510, 7533, 7532, 7975, 7976, 7999, 7998
 5662, 7510, 7511, 7534, 7533, 7976, 7977, 8000, 7999
 5663, 7511, 7512, 7535, 7534, 7977, 7978, 8001, 8000
 5664, 7512, 7513, 7536, 7535, 7978, 7979, 8002, 8001
 5665, 7513, 7514, 7537, 7536, 7979, 7980, 8003, 8002
 5666, 7514, 7515, 7538, 7537, 7980, 7981, 8004, 8003
 5667, 7515, 7516, 7539, 7538, 7981, 7982, 8005, 8004
 5668, 7516, 7517, 7540, 7539, 7982, 7983, 8006, 8005
 5669, 7517, 7518, 7541, 7540, 7983, 7984, 8007, 8006
 5670, 7518, 7519, 7542, 7541, 7984, 7985, 8008, 8007
 5671, 7519, 7520, 7543, 7542, 7985, 7986, 8009, 8008
 5672, 7520, 7521, 7544, 7543, 7986, 7987, 8010, 8009
 5673, 7521, 7522, 7545, 7544, 7987, 7988, 8011, 8010
 5674, 7522, 7523, 7546, 7545, 7988, 7989, 8012, 8011
 5675, 7523, 7524, 7547, 7546, 7989, 7990, 8013, 8012
 5676, 7524, 7525, 7548, 7547, 7990, 7991, 8014, 8013
 5677, 7525, 7526, 7549, 7548, 7991, 7992, 8015, 8014
 5678, 7526, 7527, 7550, 7549, 7992, 7993, 8016, 8015
 5679, 7527, 7528, 7551, 7550, 7993, 7994, 8017, 8016
 5680, 7528, 7529, 7552, 7551, 7994, 7995, 8018, 8017
** ... 21 like lines cut
** 5702, 7551, 7552, 7575, 7574, 8017, 8018, 8041, 8040
 5703, 7552, 7553, 7576, 7575, 8018, 8019, 8042, 8041
 5704, 7553, 7554, 7577, 7576, 8019, 8020, 8043, 8042
 5733, 7686, 7687, 7690, 7689, 8106, 8107, 8110, 8109
 5734, 7687, 7688, 7691, 7690, 8107, 8108, 8111, 8110
 5736, 7682, 7683, 7702, 7701, 8102, 8103, 8116, 8115
 5737, 7683, 7684, 7703, 7702, 8103, 8104, 8117, 8116
 5738, 7684, 7685, 7704, 7703, 8104, 8105, 8118, 8117
 5739, 7685, 7689, 7695, 7704, 8105, 8109, 8112, 8118
 5740, 7689, 7690, 7696, 7695, 8109, 8110, 8113, 8112
 5741, 7690, 7691, 7697, 7696, 8110, 8111, 8114, 8113
 5742, 7678, 7679, 7718, 7717, 8098, 8099, 8126, 8125
 5743, 7679, 7680, 7719, 7718, 8099, 8100, 8127, 8126
 5744, 7680, 7681, 7720, 7719, 8100, 8101, 8128, 8127
 5747, 7695, 7696, 7706, 7705, 8112, 8113, 8120, 8119
 5748, 7696, 7697, 7707, 7706, 8113, 8114, 8121, 8120
 5749, 7701, 7702, 7722, 7721, 8115, 8116, 8130, 8129
 5750, 7702, 7703, 7723, 7722, 8116, 8117, 8131, 8130
 5751, 7703, 7704, 7724, 7723, 8117, 8118, 8132, 8131
 5752, 7704, 7705, 7711, 7724, 8118, 8119, 8122, 8132
 5753, 7705, 7706, 7712, 7711, 8119, 8120, 8123, 8122
** ... 420 like lines cut
*ELEMENT, TYPE=C3D8I, ELSET=BOARD
    3,    9,   10,   26,   25,  938,  939,  955,  954
    4,   10,   11,   27,   26,  939,  940,  956,  955
    5,   11,   12,   28,   27,  940,  941,  957,  956
    6,   12,   13,   29,   28,  941,  942,  958,  957
    7,   13,   14,   30,   29,  942,  943,  959,  958
    8,   14,   15,   31,   30,  943,  944,  960,  959
    9,   15,   16,   32,   31,  944,  945,  961,  960
   10,   16,   17,   33,   32,  945,  946,  962,  961
   11,   17,   18,   34,   33,  946,  947,  963,  962
   12,   18,   19,   35,   34,  947,  948,  964,  963
   13,   19,   20,   36,   35,  948,  949,  965,  964
   16,    5,    6,   50,   49,  934,  935,  979,  978
   17,    6,    7,   51,   50,  935,  936,  980,  979
   18,    7,    8,   52,   51,  936,  937,  981,  980
   19,    8,   25,   37,   52,  937,  954,  966,  981
   20,   25,   26,   38,   37,  954,  955,  967,  966
   21,   26,   27,   39,   38,  955,  956,  968,  967
   22,   27,   28,   40,   39,  956,  957,  969,  968
   23,   28,   29,   41,   40,  957,  958,  970,  969
   24,   29,   30,   42,   41,  958,  959,  971,  970
** ... 1261 like lines cut
** 1526, 1451, 1452, 1484, 1483, 2380, 2381, 2413, 2412
** 1527, 1452, 1453, 1485, 1484, 2381, 2382, 2414, 2413
** 1528, 1453, 1454, 1486, 1485, 2382, 2383, 2415, 2414
** 1529, 1454, 1455, 1487, 1486, 2383, 2384, 2416, 2415
** 1530, 1455, 1456, 1488, 1487, 2384, 2385, 2417, 2416
** 1531, 1456, 1457, 1489, 1488, 2385, 2386, 2418, 2417
 1532, 1457, 1458, 1490, 1489, 2386, 2387, 2419, 2418
 1542, 1458, 1432, 1546, 1490, 2387, 2361, 2475, 2419
 1543, 1432, 1433, 1547, 1546, 2361, 2362, 2476, 2475
 1545, 1459, 1460, 1492, 1491, 2388, 2389, 2421, 2420
 1546, 1460, 1461, 1493, 1492, 2389, 2390, 2422, 2421
 1547, 1461, 1462, 1494, 1493, 2390, 2391, 2423, 2422
 1548, 1462, 1463, 1495, 1494, 2391, 2392, 2424, 2423
 1549, 1463, 1464, 1496, 1495, 2392, 2393, 2425, 2424
 1550, 1464, 1465, 1497, 1496, 2393, 2394, 2426, 2425
 1551, 1465, 1466, 1498, 1497, 2394, 2395, 2427, 2426
 1552, 1466, 1467, 1499, 1498, 2395, 2396, 2428, 2427
 1553, 1467, 1468, 1500, 1499, 2396, 2397, 2429, 2428
 1554, 1468, 1469, 1501, 1500, 2397, 2398, 2430, 2429
 1555, 1469, 1470, 1502, 1501, 2398, 2399, 2431, 2430
 1556, 1470, 1471, 1503, 1502, 2399, 2400, 2432, 2431
 1557, 1471, 1472, 1504, 1503, 2400, 2401, 2433, 2432
 1558, 1472, 1473, 1505, 1504, 2401, 2402, 2434, 2433
 1559, 1473, 1474, 1506, 1505, 2402, 2403, 2435, 2434
 1560, 1474, 1475, 1507, 1506, 2403, 2404, 2436, 2435
 1561, 1475, 1476, 1508, 1507, 2404, 2405, 2437, 2436
** ... 109 like lines cut
** 1689, 1596, 1597, 1630, 1629, 2525, 2526, 2559, 2558
 1690, 1597, 1598, 1631, 1630, 2526, 2527, 2560, 2559
 1691, 1598, 1599, 1632, 1631, 2527, 2528, 2561, 2560
 1694, 1600, 1601, 1657, 1656, 2529, 2530, 2586, 2585
 1695, 1601, 1602, 1658, 1657, 2530, 2531, 2587, 2586
 1696, 1602, 1603, 1659, 1658, 2531, 2532, 2588, 2587
 1697, 1603, 1604, 1660, 1659, 2532, 2533, 2589, 2588
 1698, 1604, 1605, 1661, 1660, 2533, 2534, 2590, 2589
 1700, 1610, 1611, 1634, 1633, 2539, 2540, 2563, 2562
 1701, 1611, 1612, 1635, 1634, 2540, 2541, 2564, 2563
 1702, 1612, 1613, 1636, 1635, 2541, 2542, 2565, 2564
 1703, 1613, 1614, 1637, 1636, 2542, 2543, 2566, 2565
 1704, 1614, 1615, 1638, 1637, 2543, 2544, 2567, 2566
 1705, 1615, 1616, 1639, 1638, 2544, 2545, 2568, 2567
 1706, 1616, 1617, 1640, 1639, 2545, 2546, 2569, 2568
 1707, 1617, 1618, 1641, 1640, 2546, 2547, 2570, 2569
 1708, 1618, 1619, 1642, 1641, 2547, 2548, 2571, 2570
 1709, 1619, 1620, 1643, 1642, 2548, 2549, 2572, 2571
 1710, 1620, 1621, 1644, 1643, 2549, 2550, 2573, 2572
 1711, 1621, 1622, 1645, 1644, 2550, 2551, 2574, 2573
 1712, 1622, 1623, 1646, 1645, 2551, 2552, 2575, 2574
** ... 6 like lines cut
** 1719, 1629, 1630, 1653, 1652, 2558, 2559, 2582, 2581
 1720, 1630, 1631, 1654, 1653, 2559, 2560, 2583, 2582
 1721, 1631, 1632, 1655, 1654, 2560, 2561, 2584, 2583
 1723, 1606, 1607, 1715, 1714, 2535, 2536, 2644, 2643
 1726, 1633, 1634, 1663, 1662, 2562, 2563, 2592, 2591
 1727, 1634, 1635, 1664, 1663, 2563, 2564, 2593, 2592
 1728, 1635, 1636, 1665, 1664, 2564, 2565, 2594, 2593
 1729, 1636, 1637, 1666, 1665, 2565, 2566, 2595, 2594
 1730, 1637, 1638, 1667, 1666, 2566, 2567, 2596, 2595
 1731, 1638, 1639, 1668, 1667, 2567, 2568, 2597, 2596
 1732, 1639, 1640, 1669, 1668, 2568, 2569, 2598, 2597
 1733, 1640, 1641, 1670, 1669, 2569, 2570, 2599, 2598
 1734, 1641, 1642, 1671, 1670, 2570, 2571, 2600, 2599
 1735, 1642, 1643, 1672, 1671, 2571, 2572, 2601, 2600
 1736, 1643, 1644, 1673, 1672, 2572, 2573, 2602, 2601
 1737, 1644, 1645, 1674, 1673, 2573, 2574, 2603, 2602
 1738, 1645, 1646, 1675, 1674, 2574, 2575, 2604, 2603
 1739, 1646, 1647, 1676, 1675, 2575, 2576, 2605, 2604
 1740, 1647, 1648, 1677, 1676, 2576, 2577, 2606, 2605
 1741, 1648, 1649, 1678, 1677, 2577, 2578, 2607, 2606
 1742, 1649, 1650, 1679, 1678, 2578, 2579, 2608, 2607
 1743, 1650, 1651, 1680, 1679, 2579, 2580, 2609, 2608
 1744, 1651, 1652, 1681, 1680, 2580, 2581, 2610, 2609
** 1745, 1652, 1653, 1682, 1681, 2581, 2582, 2611, 2610
 1746, 1653, 1654, 1683, 1682, 2582, 2583, 2612, 2611
 1747, 1654, 1655, 1684, 1683, 2583, 2584, 2613, 2612
 1748, 1656, 1657, 1709, 1708, 2585, 2586, 2638, 2637
 1749, 1657, 1658, 1710, 1709, 2586, 2587, 2639, 2638
 1750, 1658, 1659, 1711, 1710, 2587, 2588, 2640, 2639
 1751, 1659, 1660, 1712, 1711, 2588, 2589, 2641, 2640
 1752, 1660, 1661, 1713, 1712, 2589, 2590, 2642, 2641
 1755, 1662, 1663, 1686, 1685, 2591, 2592, 2615, 2614
 1756, 1663, 1664, 1687, 1686, 2592, 2593, 2616, 2615
 1757, 1664, 1665, 1688, 1687, 2593, 2594, 2617, 2616
 1758, 1665, 1666, 1689, 1688, 2594, 2595, 2618, 2617
 1759, 1666, 1667, 1690, 1689, 2595, 2596, 2619, 2618
 1760, 1667, 1668, 1691, 1690, 2596, 2597, 2620, 2619
 1761, 1668, 1669, 1692, 1691, 2597, 2598, 2621, 2620
 1762, 1669, 1670, 1693, 1692, 2598, 2599, 2622, 2621
 1763, 1670, 1671, 1694, 1693, 2599, 2600, 2623, 2622
 1764, 1671, 1672, 1695, 1694, 2600, 2601, 2624, 2623
 1765, 1672, 1673, 1696, 1695, 2601, 2602, 2625, 2624
 1766, 1673, 1674, 1697, 1696, 2602, 2603, 2626, 2625
 1767, 1674, 1675, 1698, 1697, 2603, 2604, 2627, 2626
** ... 6 like lines cut
** 1774, 1681, 1682, 1705, 1704, 2610, 2611, 2634, 2633
 1775, 1682, 1683, 1706, 1705, 2611, 2612, 2635, 2634
 1776, 1683, 1684, 1707, 1706, 2612, 2613, 2636, 2635
 1778, 1608, 1609, 1800, 1799, 2537, 2538, 2729, 2728
 1781, 1685, 1686, 1717, 1716, 2614, 2615, 2646, 2645
 1782, 1686, 1687, 1718, 1717, 2615, 2616, 2647, 2646
 1783, 1687, 1688, 1719, 1718, 2616, 2617, 2648, 2647
 1784, 1688, 1689, 1720, 1719, 2617, 2618, 2649, 2648
 1785, 1689, 1690, 1721, 1720, 2618, 2619, 2650, 2649
 1786, 1690, 1691, 1722, 1721, 2619, 2620, 2651, 2650
 1787, 1691, 1692, 1723, 1722, 2620, 2621, 2652, 2651
 1788, 1692, 1693, 1724, 1723, 2621, 2622, 2653, 2652
 1789, 1693, 1694, 1725, 1724, 2622, 2623, 2654, 2653
 1790, 1694, 1695, 1726, 1725, 2623, 2624, 2655, 2654
 1791, 1695, 1696, 1727, 1726, 2624, 2625, 2656, 2655
 1792, 1696, 1697, 1728, 1727, 2625, 2626, 2657, 2656
 1793, 1697, 1698, 1729, 1728, 2626, 2627, 2658, 2657
 1794, 1698, 1699, 1730, 1729, 2627, 2628, 2659, 2658
 1795, 1699, 1700, 1731, 1730, 2628, 2629, 2660, 2659
 1796, 1700, 1701, 1732, 1731, 2629, 2630, 2661, 2660
 1797, 1701, 1702, 1733, 1732, 2630, 2631, 2662, 2661
 1798, 1702, 1703, 1734, 1733, 2631, 2632, 2663, 2662
 1799, 1703, 1704, 1735, 1734, 2632, 2633, 2664, 2663
** 1800, 1704, 1705, 1736, 1735, 2633, 2634, 2665, 2664
 1801, 1705, 1706, 1737, 1736, 2634, 2635, 2666, 2665
 1802, 1706, 1707, 1738, 1737, 2635, 2636, 2667, 2666
 1805, 1708, 1709, 1763, 1762, 2637, 2638, 2692, 2691
 1806, 1709, 1710, 1764, 1763, 2638, 2639, 2693, 2692
 1807, 1710, 1711, 1765, 1764, 2639, 2640, 2694, 2693
 1808, 1711, 1712, 1766, 1765, 2640, 2641, 2695, 2694
 1809, 1712, 1713, 1767, 1766, 2641, 2642, 2696, 2695
 1810, 1716, 1717, 1740, 1739, 2645, 2646, 2669, 2668
 1811, 1717, 1718, 1741, 1740, 2646, 2647, 2670, 2669
 1812, 1718, 1719, 1742, 1741, 2647, 2648, 2671, 2670
 1813, 1719, 1720, 1743, 1742, 2648, 2649, 2672, 2671
 1814, 1720, 1721, 1744, 1743, 2649, 2650, 2673, 2672
 1815, 1721, 1722, 1745, 1744, 2650, 2651, 2674, 2673
 1816, 1722, 1723, 1746, 1745, 2651, 2652, 2675, 2674
 1817, 1723, 1724, 1747, 1746, 2652, 2653, 2676, 2675
 1818, 1724, 1725, 1748, 1747, 2653, 2654, 2677, 2676
 1819, 1725, 1726, 1749, 1748, 2654, 2655, 2678, 2677
 1820, 1726, 1727, 1750, 1749, 2655, 2656, 2679, 2678
 1821, 1727, 1728, 1751, 1750, 2656, 2657, 2680, 2679
 1822, 1728, 1729, 1752, 1751, 2657, 2658, 2681, 2680
** ... 6 like lines cut
** 1829, 1735, 1736, 1759, 1758, 2664, 2665, 2688, 2687
 1830, 1736, 1737, 1760, 1759, 2665, 2666, 2689, 2688
 1831, 1737, 1738, 1761, 1760, 2666, 2667, 2690, 2689
 1834, 1714, 1715, 1798, 1797, 2643, 2644, 2727, 2726
 1836, 1739, 1740, 1769, 1768, 2668, 2669, 2698, 2697
 1837, 1740, 1741, 1770, 1769, 2669, 2670, 2699, 2698
 1838, 1741, 1742, 1771, 1770, 2670, 2671, 2700, 2699
 1839, 1742, 1743, 1772, 1771, 2671, 2672, 2701, 2700
 1840, 1743, 1744, 1773, 1772, 2672, 2673, 2702, 2701
 1841, 1744, 1745, 1774, 1773, 2673, 2674, 2703, 2702
 1842, 1745, 1746, 1775, 1774, 2674, 2675, 2704, 2703
 1843, 1746, 1747, 1776, 1775, 2675, 2676, 2705, 2704
 1844, 1747, 1748, 1777, 1776, 2676, 2677, 2706, 2705
 1845, 1748, 1749, 1778, 1777, 2677, 2678, 2707, 2706
 1846, 1749, 1750, 1779, 1778, 2678, 2679, 2708, 2707
 1847, 1750, 1751, 1780, 1779, 2679, 2680, 2709, 2708
 1848, 1751, 1752, 1781, 1780, 2680, 2681, 2710, 2709
 1849, 1752, 1753, 1782, 1781, 2681, 2682, 2711, 2710
 1850, 1753, 1754, 1783, 1782, 2682, 2683, 2712, 2711
 1851, 1754, 1755, 1784, 1783, 2683, 2684, 2713, 2712
 1852, 1755, 1756, 1785, 1784, 2684, 2685, 2714, 2713
** ... 52 like lines cut
**
** ELEMENT SET DEFINITIONS
**
** leadc
**
*ELSET, ELSET=LEADC
    3722,    3723,    3724,    3725,    3726,    3727,    3728,    3729,
    3730,    3731,    3732,    3733,    3734,    3735,    3736,    3737,
    3738,    3739,    3740,    3741,    3742,    3743,    3744,    3768,
    3769,    3770,    3771,    3772,    3773,    3774,    3775,    3776,
    3777,    3778,    3779,    3780,    3781,    3782,    3783,    3784,
    3785,    3786,    3787,    3788,    3789,    3790,    3791,    3792,
    3793,    3794,    3795,    3796,    3797,    3798,    3799,    3800,
    3801,    3802,    3803,    3804,    3805,    3806,    3807,    3808,
    3809,    3810,    3811,    3812,    3813,    4080,    4081,    4082,
    4083,    4084,    4085,    4086,    4087,    4088,    4089,    4090,
    4091,    4092,    4093,    4094,    4095,    4096,    4097,    4098,
    4099,    4100,    4101,    4102,    4658,    4659,    4660,    4661,
    4662,    4663,    4664,    4665,    4666,    4667,    4668,    4669,
    4670,    4671,    4672,    4673,    4674,    4675,    4676,    4677,
    4678,    4679,    4680,    4681,    4682,    4683,    4684,    4685,
    4686,    4687,    4688,    4689,    4690,    4691,    4692,    4693,
    4694,    4695,    4696,    4697,    4698,    4699,    4700,    4701,
    4702,    4703,    4704,    4705,    4706,    4707,    4708,    4709,
    4710,    4711,    4712,    4713,    4714,    4715,    4716,    4717,
    4718,    4719,    4720,    4721,    4722,    4723,    4724,    4725,
** ... 26 like lines cut
**
** padc
**
*ELSET, ELSET=PADC
    2221,    2222,    2223,    2224,    2225,    2226,    2227,    2228,
    2229,    2230,    2231,    2232,    2233,    2234,    2235,    2236,
    2237,    2238,    2239,    2240,    2241,    2242,    2243,    2244,
    2245,    2246,    2247,    2248,    2249,    2250,    2251,    2252,
    2253,    2254,    2255,    2256,    2257,    2258,    2259,    2260,
    2261,    2262,    2263,    2264,    2265,    2266,    2267,    2268,
    2269,    2270,    2271,    2272,    2273,    2274,    2275,    2276,
    2277,    2278,    2279,    2280,    2281,    2282,    2283,    2284,
    2285,    2286,    2287,    2288,    2289,    2290,    2291,    2292,
    2293,    2294,    2295,    2296,    2297,    2298,    2299,    2300,
    2301,    2302,    2303,    2304,    2305,    2306,    2307,    2308,
    2309,    2310,    2311,    2312,    2313,    2314,    2315,    2316,
    2317,    2318,    2319,    2320,    2321,    2322,    2323,    2324,
    2325,    2326,    2327,    2328,    2329,    2330,    2331,    2332,
    2333,    2334,    2335,    2336,    2337,    2338,    2339,    2340,
    2341,    2342,    2343,    2344,    2345,    2346,    2347,    2348,
    2349,    2350,    2351,    2352,    2353,    2354,    2355,    2356,
    2357,     2358
*ELSET,ELSET=LEAD
LEADC,
*ELSET,ELSET=PAD
PADC,
*ELSET,ELSET=SOLDER
SOLDERC,
**
**
** NODE SET DEFINITIONS
**
** ysymmp
**
*NSET, NSET=YSYMMP
    5912,    5913,    5914,    5915,    5916,    5917,    5918,    5919,
    5920,    5921,    5922,    6608,    6609,    6610,    6611,    6612,
    6613,    6614,    6615,    6616,    6617,    6618,    7212,    7213,
    7214,    7215,    7216,    7217,    7218,    7219,    7220,    7221,
    7222,    7678,    7679,    7680,    7681,    7682,    7683,    7684,
    7685,    7686,    7687,    7688,    8098,    8099,    8100,    8101,
    8102,    8103,    8104,    8105,    8106,    8107,    8108,    8380,
    8381,    8382,    8383,    8384,    8385,    8386,    8387,    8388,
    8389,    8390
**
** xsymmp
**
*NSET, NSET=XSYMMP
    5912,    5939,    5963,    5987,    6011,    6035,    6049,    6066,
    6083,    6097,    6111,    6125,    6148,    6171,    6608,    6635,
    6659,    6683,    6707,    6731,    6745,    6762,    6779,    6793,
    6807,    6821,    6844,    6867,    7212,    7251,    7287,    7323,
    7359,    7395,    7415,    7438,    7461,    7478,    7495,    7509,
    7532,    7555,    7678,    7717,    7753,    7789,    7825,    7861,
    7881,    7904,    7927,    7944,    7961,    7975,    7998,    8021,
    8098,    8125,    8149,    8173,    8197,    8221,    8235,    8252,
    8269,    8283,    8297,    8311,    8334,    8357,    8380,    8407,
    8431,    8455,    8479,    8503,    8517,    8534,    8551,    8565,
    8579,    8593,    8616,    8639
**
** ysymmb
**
*NSET, NSET=YSYMMB
       1,       2,       3,       4,       5,       6,       7,       8,
       9,      10,      11,      12,      13,      14,      15,      16,
      17,      18,      19,      20,      21,      22,      23,      24,
     930,     931,     932,     933,     934,     935,     936,     937,
     938,     939,     940,     941,     942,     943,     944,     945,
     946,     947,     948,     949,     950,     951,     952,     953,
    1859,    1860,    1861,    1862,    1863,    1864,    1865,    1866,
    1867,    1868,    1869,    1870,    1871,    1872,    1873,    1874,
    1875,    1876,    1877,    1878,    1879,    1880,    1881,    1882
**
** xsymmb
**
*NSET, NSET=XSYMMB
       1,      79,     145,     211,     277,     343,     379,     416,
     455,     480,     507,     530,     562,     585,     619,     648,
     681,     704,     733,     756,     787,     810,     839,     872,
     889,     908,     919,     930,    1008,    1074,    1140,    1206,
    1272,    1308,    1345,    1384,    1409,    1436,    1459,    1491,
    1514,    1548,    1577,    1610,    1633,    1662,    1685,    1716,
    1739,    1768,    1801,    1818,    1837,    1848,    1859,    1937,
    2003,    2069,    2135,    2201,    2237,    2274,    2313,    2338,
    2365,    2388,    2420,    2443,    2477,    2506,    2539,    2562,
    2591,    2614,    2645,    2668,    2697,    2730,    2747,    2766,
    2777,
*NSET,NSET=XSYMM
XSYMMP,XSYMMB
*NSET,NSET=YSYMM
YSYMMP,YSYMMB
**
** pinz
**
*NSET, NSET=PINZ
       1,
**
** base
**
*NSET, NSET=BASE
       1,       2,       3,       4,       5,       6,       7,       8,
       9,      10,      11,      12,      13,      14,      15,      16,
      17,      18,      19,      20,      21,      22,      23,      24,
      25,      26,      27,      28,      29,      30,      31,      32,
      33,      34,      35,      36,      37,      38,      39,      40,
      41,      42,      43,      44,      45,      46,      47,      48,
      49,      50,      51,      52,      53,      54,      55,      56,
      57,      58,      59,      60,      61,      62,      63,      64,
      65,      66,      67,      68,      69,      70,      71,      72,
      73,      74,      75,      76,      77,      78,      79,      80,
      81,      82,      83,      84,      85,      86,      87,      88,
      89,      90,      91,      92,      93,      94,      95,      96,
      97,      98,      99,     100,     101,     102,     103,     104,
     105,     106,     107,     108,     109,     110,     111,     112,
     113,     114,     115,     116,     117,     118,     119,     120,
     121,     122,     123,     124,     125,     126,     127,     128,
     129,     130,     131,     132,     133,     134,     135,     136,
     137,     138,     139,     140,     141,     142,     143,     144,
     145,     146,     147,     148,     149,     150,     151,     152,
     153,     154,     155,     156,     157,     158,     159,     160,
** ... 97 like lines cut
*NSET,NSET=SBOARD1,GEN
1483,1489,1
1451,1457,1
2412,2418,1
2380,2386,1
*NSET,NSET=SBOARD2
2525,2526,2558,2559,2581,2582,2610,2611,2633,2634,2664,2665,2687,2688
1596,1597,1629,1630,1652,1653,1681,1682,1704,1705,1735,1736,1758,1759
*NSET,NSET=SPACK1
7531,7530,7507,7508,7997,7996,7973,7974
*NSET,NSET=SPACK2
7574,7575,7551,7552,8040,8041,8017,8018
*NSET,NSET=RETAINED
SBOARD1,SBOARD2,SPACK1,SPACK2
**
**ELEMENT PROPERTIES
**
**local orientation matching global system 
*ORIENTATION,NAME=RECT
 1.0, 0.0, 0.0, 0.0, 1.0, 0.0
 1, 0.0
*SOLID SECTION, ELSET=SOLDER, MATERIAL=SOLDER
**
*SOLID SECTION, ELSET=LEAD, MATERIAL=LEAD
**
*SOLID SECTION, ELSET=PAD, MATERIAL=PAD
**
*SOLID SECTION, ELSET=PACKAGE, MATERIAL=PACKAGE
**
*SOLID SECTION, ELSET=BOARD, MATERIAL=BOARD,ORIENT=RECT
**
**
** fr4
**
*MATERIAL,NAME=BOARD
**
*ELASTIC,TYPE=ENGINEERING CONSTANTS
15031,6895,15031,.241,.159,.497,2103,2758
2103, 
*EXPANSION,TYPE=ORTHO,ZERO=0.0
20.6E-6,20.6E-6,68.3E-6
**
** eutectic solder (63Sn/37Pb)
**
*MATERIAL,NAME=SOLDER
*ELASTIC
31976,0.4,0
20976,0.4,125
*EXPANSION,ZERO=0.0
21E-6,
**
** kovar
**
*MATERIAL,NAME=LEAD 
*ELASTIC
138034,0.3
*EXPANSION,ZERO=0.0
5.87E-6, 
**
** component (package) - alumina
**
*MATERIAL,NAME=PACKAGE
*ELASTIC
299992,0.22
*EXPANSION,ZERO=0.0
7.1E-6, 
**
** copper
**
*MATERIAL,NAME=PAD
*ELASTIC
128933,0.345
*EXPANSION,ZERO=0.0
16.7E-6, 
