1

   Abaqus 2023                                  Date 08-Dec-2024   Time 19:26:49
   For use by CSC_ IT CENTER FOR SCIENCE LTD under license from Dassault Systemes or its subsidiary.

                                                                                 
                                                                                 
 STEP    1     INCREMENT     1     STEP TIME    0.00    


                        S T E P       1     C O U P L E D - T E M P E R A T U R E - D I S P L A C E M E N T   A N A L Y S I S


                                                                                          

          FIXED TIME INCREMENTS
          TIME INCREMENT IS                                     360.    
          TIME PERIOD IS                                       1.800E+03

          CREEP AND SWELLING EFFECTS ARE OMITTED IN THIS STEP
          THE RATE DEPENDENCY WILL BE CONSIDERED IN THIS STEP

          CREEP AND SWELLING EFFECTS WILL BE IGNORED.

 CONVERGENCE TOLERANCE PARAMETERS FOR FORCE    
     CRITERION FOR RESIDUAL FORCE     FOR A NONLINEAR PROBLEM          5.000E-03
     CRITERION FOR DISP.    CORRECTION IN A NONLINEAR PROBLEM          1.000E-02
     INITIAL VALUE OF TIME AVERAGE FORCE                               1.000E-02
     AVERAGE FORCE     IS TIME AVERAGE FORCE    
     ALTERNATE CRIT. FOR RESIDUAL FORCE     FOR A NONLINEAR PROBLEM    2.000E-02
     CRITERION FOR ZERO FORCE     RELATIVE TO TIME AVRG. FORCE         1.000E-05
     CRITERION FOR RESIDUAL FORCE     WHEN THERE IS ZERO FLUX          1.000E-05
     CRITERION FOR DISP.    CORRECTION WHEN THERE IS ZERO FLUX         1.000E-03
     CRITERION FOR RESIDUAL FORCE     FOR A LINEAR INCREMENT           1.000E-08
     FIELD CONVERSION RATIO                                             1.00    
     CRITERION FOR ZERO FORCE     REL. TO TIME AVRG. MAX. FORCE        1.000E-05
     CRITERION FOR ZERO DISP.    RELATIVE TO CHARACTERISTIC LENGTH     1.000E-08

 CONVERGENCE TOLERANCE PARAMETERS FOR HEAT FLUX
     CRITERION FOR RESIDUAL HEAT FLUX FOR A NONLINEAR PROBLEM          5.000E-03
     CRITERION FOR TEMP.    CORRECTION IN A NONLINEAR PROBLEM          1.000E-02
     INITIAL VALUE OF TIME AVERAGE HEAT FLUX                           1.000E-02
     AVERAGE HEAT FLUX IS TIME AVERAGE HEAT FLUX
     ALTERNATE CRIT. FOR RESIDUAL HEAT FLUX FOR A NONLINEAR PROBLEM    2.000E-02
     CRITERION FOR ZERO HEAT FLUX RELATIVE TO TIME AVRG. HEAT FLUX     1.000E-05
     CRITERION FOR RESIDUAL HEAT FLUX WHEN THERE IS ZERO FLUX          1.000E-05
     CRITERION FOR TEMP.    CORRECTION WHEN THERE IS ZERO FLUX         1.000E-03
     CRITERION FOR RESIDUAL HEAT FLUX FOR A LINEAR INCREMENT           1.000E-08
     FIELD CONVERSION RATIO                                             1.00    
     CRITERION FOR ZERO HEAT FLUX REL. TO TIME AVRG. MAX. HEAT FLUX    1.000E-05

     VOLUMETRIC STRAIN COMPATIBILITY TOLERANCE FOR HYBRID SOLIDS       1.000E-05
     AXIAL STRAIN COMPATIBILITY TOLERANCE FOR HYBRID BEAMS             1.000E-05
     TRANS. SHEAR STRAIN COMPATIBILITY TOLERANCE FOR HYBRID BEAMS      1.000E-05
     SOFT CONTACT CONSTRAINT COMPATIBILITY TOLERANCE FOR P>P0          5.000E-03
     SOFT CONTACT CONSTRAINT COMPATIBILITY TOLERANCE FOR P=0.0         0.100    
     CONTACT FORCE ERROR TOLERANCE FOR CONVERT SDI=YES                 1.00    
     DISPLACEMENT COMPATIBILITY TOLERANCE FOR DCOUP ELEMENTS           1.000E-05
     ROTATION COMPATIBILITY TOLERANCE FOR DCOUP ELEMENTS               1.000E-05

 EQUILIBRIUM WILL BE CHECKED FOR SEVERE DISCONTINUITY ITERATIONS

 ITERATION CONTROL PARAMETERS:
     FIRST EQUILIBRIUM ITERATION FOR CONSECUTIVE DIVERGENCE CHECK              4
     EQUILIBRIUM ITERATION AFTER WHICH ALTERNATE RESIDUAL IS USED              9
     MAXIMUM EQUILIBRIUM ITERATIONS ALLOWED                                   16
     MAXIMUM ITERATIONS FOR SEVERE DISCONTINUITIES                            12
     GLOBAL STABILIZATION CONTROL IS NOT USED

          PRINT OF INCREMENT NUMBER, TIME, ETC., EVERY    1  INCREMENTS

     THE MAXIMUM NUMBER OF INCREMENTS IN THIS STEP IS                 1000000

          LARGE DISPLACEMENT THEORY WILL BE USED

          UNSYMMETRIC MATRIX STORAGE AND SOLUTION WILL BE USED

     LINEAR EXTRAPOLATION WILL BE USED

     CHARACTERISTIC ELEMENT LENGTH     1.283E-04

     DETAILS REGARDING ACTUAL SOLUTION WAVEFRONT REQUESTED

     DETAILED OUTPUT OF DIAGNOSTICS TO DATABASE REQUESTED

     PRINT OF INCREMENT NUMBER, TIME, ETC., TO THE MESSAGE FILE EVERY     1  INCREMENTS

     ELEMENT OPERATIONS WILL BE CARRIED OUT IN PARALLEL USING   8 THREADS ON 1 DOMAIN

     PARALLEL CONTACT TRACKING ENABLED


     COLLECTING MODEL CONSTRAINT INFORMATION FOR OVERCONSTRAINT CHECKS

     COLLECTING STEP CONSTRAINT INFORMATION FOR OVERCONSTRAINT CHECKS


  INCREMENT     1 STARTS. ATTEMPT NUMBER  1, TIME INCREMENT   360.    
 
     INITIAL ELEMENT LOAD BALANCE
            DOMAIN    1     THREAD    NUMBER OF ELEMENTS
                              1            15400
                              2            14152
                              3            15696
                              4            15664
                              5            15696
                              6            15704
                              7            14832
                              8            14551
 
	UNSYMMETRIC DIRECT SPARSE SOLVER RUNNING ON
 	1 HOST:        1 MPI RANK  x 8 THREADS
 	NUMBER OF EQUATIONS:     552528
 	NUMBER OF RHS:           1
 	NUMBER OF FLOPS:         2.519e+12

     CHECK POINT  START OF SOLVER     

     CHECK POINT  END OF SOLVER       

       ELAPSED USER TIME (SEC)      =   125.70    
       ELAPSED SYSTEM TIME (SEC)    =   11.860    
       ELAPSED TOTAL CPU TIME (SEC) =   137.56    
       ELAPSED WALLCLOCK TIME (SEC) =           18

               CONVERGENCE CHECKS FOR EQUILIBRIUM ITERATION     1


 AVERAGE FORCE                       0.00       TIME AVG. FORCE       1.000E-02
 ALL FORCE     RESIDUALS ARE ZERO
 ALL DISP.    INCREMENTS ARE ZERO
 ALL CORRECTION TO DISP.    ARE ZERO
          THERE IS ZERO FORCE     EVERYWHERE

 AVERAGE HEAT FLUX                  5.818E-14   TIME AVG. HEAT FLUX   1.000E-02
 LARGEST RESIDUAL HEAT FLUX         5.977E-16   AT NODE       8619   DOF 11
   INSTANCE: CHD4                                                                            
 LARGEST INCREMENT OF TEMP.          8.66       AT NODE          1   DOF 11
   INSTANCE: CHD4                                                                            
 LARGEST CORRECTION TO TEMP.         8.66       AT NODE          1   DOF 11
   INSTANCE: CHD4                                                                            
          THERE IS ZERO HEAT FLUX EVERYWHERE
 

 ***WARNING: THERE IS ZERO HEAT FLUX EVERYWHERE IN THE MODEL BASED ON THE 
             DEFAULT CRITERION. PLEASE CHECK THE VALUE OF THE AVERAGE HEAT FLUX 
             DURING THE CURRENT ITERATION TO VERIFY THAT THE HEAT FLUX IS SMALL 
             ENOUGH TO BE TREATED AS ZERO. IF NOT, PLEASE USE THE SOLUTION 
             CONTROLS TO RESET THE CRITERION FOR ZERO HEAT FLUX.

 ITERATION SUMMARY FOR THE INCREMENT:   1 TOTAL ITERATIONS, OF WHICH
   0 ARE SEVERE DISCONTINUITY ITERATIONS AND  1 ARE EQUILIBRIUM ITERATIONS.

 TIME INCREMENT COMPLETED   360.    ,  FRACTION OF STEP COMPLETED  0.200    
 STEP TIME COMPLETED        360.    ,  TOTAL TIME COMPLETED         360.    


  INCREMENT     2 STARTS. ATTEMPT NUMBER  1, TIME INCREMENT   360.    
 
	UNSYMMETRIC DIRECT SPARSE SOLVER RUNNING ON
 	1 HOST:        1 MPI RANK  x 8 THREADS
 	NUMBER OF EQUATIONS:     552528
 	NUMBER OF RHS:           1
 	NUMBER OF FLOPS:         2.519e+12

     CHECK POINT  START OF SOLVER     

     CHECK POINT  END OF SOLVER       

       ELAPSED USER TIME (SEC)      =   103.64    
       ELAPSED SYSTEM TIME (SEC)    =  0.53000    
       ELAPSED TOTAL CPU TIME (SEC) =   104.17    
       ELAPSED WALLCLOCK TIME (SEC) =           14

               CONVERGENCE CHECKS FOR EQUILIBRIUM ITERATION     1


 AVERAGE FORCE                       0.00       TIME AVG. FORCE       1.000E-02
 ALL FORCE     RESIDUALS ARE ZERO
 ALL DISP.    INCREMENTS ARE ZERO
 ALL CORRECTION TO DISP.    ARE ZERO
          THERE IS ZERO FORCE     EVERYWHERE

 AVERAGE HEAT FLUX                  3.862E-14   TIME AVG. HEAT FLUX   1.000E-02
 LARGEST RESIDUAL HEAT FLUX        -1.334E-16   AT NODE       8619   DOF 11
   INSTANCE: CHD4                                                                            
 LARGEST INCREMENT OF TEMP.          2.17       AT NODE      57534   DOF 11
   INSTANCE: CHD4                                                                            
 LARGEST CORRECTION TO TEMP.        -8.66       AT NODE          1   DOF 11
   INSTANCE: CHD4                                                                            
          THERE IS ZERO HEAT FLUX EVERYWHERE
 

 ***WARNING: THERE IS ZERO HEAT FLUX EVERYWHERE IN THE MODEL BASED ON THE 
             DEFAULT CRITERION. PLEASE CHECK THE VALUE OF THE AVERAGE HEAT FLUX 
             DURING THE CURRENT ITERATION TO VERIFY THAT THE HEAT FLUX IS SMALL 
             ENOUGH TO BE TREATED AS ZERO. IF NOT, PLEASE USE THE SOLUTION 
             CONTROLS TO RESET THE CRITERION FOR ZERO HEAT FLUX.

 ITERATION SUMMARY FOR THE INCREMENT:   1 TOTAL ITERATIONS, OF WHICH
   0 ARE SEVERE DISCONTINUITY ITERATIONS AND  1 ARE EQUILIBRIUM ITERATIONS.

 TIME INCREMENT COMPLETED   360.    ,  FRACTION OF STEP COMPLETED  0.400    
 STEP TIME COMPLETED        720.    ,  TOTAL TIME COMPLETED         720.    


  INCREMENT     3 STARTS. ATTEMPT NUMBER  1, TIME INCREMENT   360.    
 
	UNSYMMETRIC DIRECT SPARSE SOLVER RUNNING ON
 	1 HOST:        1 MPI RANK  x 8 THREADS
 	NUMBER OF EQUATIONS:     552528
 	NUMBER OF RHS:           1
 	NUMBER OF FLOPS:         2.519e+12

     CHECK POINT  START OF SOLVER     

     CHECK POINT  END OF SOLVER       

       ELAPSED USER TIME (SEC)      =   103.64    
       ELAPSED SYSTEM TIME (SEC)    =  0.48000    
       ELAPSED TOTAL CPU TIME (SEC) =   104.12    
       ELAPSED WALLCLOCK TIME (SEC) =           14

               CONVERGENCE CHECKS FOR EQUILIBRIUM ITERATION     1


 AVERAGE FORCE                       0.00       TIME AVG. FORCE       1.000E-02
 ALL FORCE     RESIDUALS ARE ZERO
 ALL DISP.    INCREMENTS ARE ZERO
 ALL CORRECTION TO DISP.    ARE ZERO
          THERE IS ZERO FORCE     EVERYWHERE

 AVERAGE HEAT FLUX                  2.936E-14   TIME AVG. HEAT FLUX   1.000E-02
 LARGEST RESIDUAL HEAT FLUX        -1.934E-17   AT NODE       8257   DOF 11
   INSTANCE: CHD4                                                                            
 LARGEST INCREMENT OF TEMP.          1.54       AT NODE      46869   DOF 11
   INSTANCE: CHD4                                                                            
 LARGEST CORRECTION TO TEMP.        -1.14       AT NODE      92474   DOF 11
   INSTANCE: CHD4                                                                            
          THERE IS ZERO HEAT FLUX EVERYWHERE
 

 ***WARNING: THERE IS ZERO HEAT FLUX EVERYWHERE IN THE MODEL BASED ON THE 
             DEFAULT CRITERION. PLEASE CHECK THE VALUE OF THE AVERAGE HEAT FLUX 
             DURING THE CURRENT ITERATION TO VERIFY THAT THE HEAT FLUX IS SMALL 
             ENOUGH TO BE TREATED AS ZERO. IF NOT, PLEASE USE THE SOLUTION 
             CONTROLS TO RESET THE CRITERION FOR ZERO HEAT FLUX.

 ITERATION SUMMARY FOR THE INCREMENT:   1 TOTAL ITERATIONS, OF WHICH
   0 ARE SEVERE DISCONTINUITY ITERATIONS AND  1 ARE EQUILIBRIUM ITERATIONS.

 TIME INCREMENT COMPLETED   360.    ,  FRACTION OF STEP COMPLETED  0.600    
 STEP TIME COMPLETED       1.080E+03,  TOTAL TIME COMPLETED        1.080E+03


  INCREMENT     4 STARTS. ATTEMPT NUMBER  1, TIME INCREMENT   360.    
 
	UNSYMMETRIC DIRECT SPARSE SOLVER RUNNING ON
 	1 HOST:        1 MPI RANK  x 8 THREADS
 	NUMBER OF EQUATIONS:     552528
 	NUMBER OF RHS:           1
 	NUMBER OF FLOPS:         2.519e+12

     CHECK POINT  START OF SOLVER     

     CHECK POINT  END OF SOLVER       

       ELAPSED USER TIME (SEC)      =   103.61    
       ELAPSED SYSTEM TIME (SEC)    =  0.46000    
       ELAPSED TOTAL CPU TIME (SEC) =   104.07    
       ELAPSED WALLCLOCK TIME (SEC) =           14

               CONVERGENCE CHECKS FOR EQUILIBRIUM ITERATION     1


 AVERAGE FORCE                       0.00       TIME AVG. FORCE       1.000E-02
 ALL FORCE     RESIDUALS ARE ZERO
 ALL DISP.    INCREMENTS ARE ZERO
 ALL CORRECTION TO DISP.    ARE ZERO
          THERE IS ZERO FORCE     EVERYWHERE

 AVERAGE HEAT FLUX                  2.208E-14   TIME AVG. HEAT FLUX   1.000E-02
 LARGEST RESIDUAL HEAT FLUX        -9.233E-18   AT NODE       8258   DOF 11
   INSTANCE: CHD4                                                                            
 LARGEST INCREMENT OF TEMP.          1.17       AT NODE      23818   DOF 11
   INSTANCE: CHD4                                                                            
 LARGEST CORRECTION TO TEMP.       -0.515       AT NODE      37229   DOF 11
   INSTANCE: CHD4                                                                            
          THERE IS ZERO HEAT FLUX EVERYWHERE
 

 ***WARNING: THERE IS ZERO HEAT FLUX EVERYWHERE IN THE MODEL BASED ON THE 
             DEFAULT CRITERION. PLEASE CHECK THE VALUE OF THE AVERAGE HEAT FLUX 
             DURING THE CURRENT ITERATION TO VERIFY THAT THE HEAT FLUX IS SMALL 
             ENOUGH TO BE TREATED AS ZERO. IF NOT, PLEASE USE THE SOLUTION 
             CONTROLS TO RESET THE CRITERION FOR ZERO HEAT FLUX.

 ITERATION SUMMARY FOR THE INCREMENT:   1 TOTAL ITERATIONS, OF WHICH
   0 ARE SEVERE DISCONTINUITY ITERATIONS AND  1 ARE EQUILIBRIUM ITERATIONS.

 TIME INCREMENT COMPLETED   360.    ,  FRACTION OF STEP COMPLETED  0.800    
 STEP TIME COMPLETED       1.440E+03,  TOTAL TIME COMPLETED        1.440E+03


  INCREMENT     5 STARTS. ATTEMPT NUMBER  1, TIME INCREMENT   360.    
 
	UNSYMMETRIC DIRECT SPARSE SOLVER RUNNING ON
 	1 HOST:        1 MPI RANK  x 8 THREADS
 	NUMBER OF EQUATIONS:     552528
 	NUMBER OF RHS:           1
 	NUMBER OF FLOPS:         2.519e+12

     CHECK POINT  START OF SOLVER     

     CHECK POINT  END OF SOLVER       

       ELAPSED USER TIME (SEC)      =   103.80    
       ELAPSED SYSTEM TIME (SEC)    =  0.47000    
       ELAPSED TOTAL CPU TIME (SEC) =   104.27    
       ELAPSED WALLCLOCK TIME (SEC) =           14

               CONVERGENCE CHECKS FOR EQUILIBRIUM ITERATION     1


 AVERAGE FORCE                       0.00       TIME AVG. FORCE       1.000E-02
 ALL FORCE     RESIDUALS ARE ZERO
 ALL DISP.    INCREMENTS ARE ZERO
 ALL CORRECTION TO DISP.    ARE ZERO
          THERE IS ZERO FORCE     EVERYWHERE

 AVERAGE HEAT FLUX                  1.654E-14   TIME AVG. HEAT FLUX   1.000E-02
 LARGEST RESIDUAL HEAT FLUX        -5.785E-18   AT NODE       8249   DOF 11
   INSTANCE: CHD4                                                                            
 LARGEST INCREMENT OF TEMP.         0.872       AT NODE      43010   DOF 11
   INSTANCE: CHD4                                                                            
 LARGEST CORRECTION TO TEMP.       -0.344       AT NODE      84373   DOF 11
   INSTANCE: CHD4                                                                            
          THERE IS ZERO HEAT FLUX EVERYWHERE
 

 ***WARNING: THERE IS ZERO HEAT FLUX EVERYWHERE IN THE MODEL BASED ON THE 
             DEFAULT CRITERION. PLEASE CHECK THE VALUE OF THE AVERAGE HEAT FLUX 
             DURING THE CURRENT ITERATION TO VERIFY THAT THE HEAT FLUX IS SMALL 
             ENOUGH TO BE TREATED AS ZERO. IF NOT, PLEASE USE THE SOLUTION 
             CONTROLS TO RESET THE CRITERION FOR ZERO HEAT FLUX.

 ITERATION SUMMARY FOR THE INCREMENT:   1 TOTAL ITERATIONS, OF WHICH
   0 ARE SEVERE DISCONTINUITY ITERATIONS AND  1 ARE EQUILIBRIUM ITERATIONS.

 TIME INCREMENT COMPLETED   360.    ,  FRACTION OF STEP COMPLETED   1.00    
 STEP TIME COMPLETED       1.800E+03,  TOTAL TIME COMPLETED        1.800E+03
1

   Abaqus 2023                                  Date 08-Dec-2024   Time 19:30:28
   For use by CSC_ IT CENTER FOR SCIENCE LTD under license from Dassault Systemes or its subsidiary.

                                                                                 
                                                                                 
 STEP    2     INCREMENT     1     STEP TIME    0.00    


                        S T E P       2     C O U P L E D - T E M P E R A T U R E - D I S P L A C E M E N T   A N A L Y S I S


                                                                                          

     AUTOMATIC TIME CONTROL WITH -
          A SUGGESTED INITIAL TIME INCREMENT OF                 6.04    
          AND A TOTAL TIME PERIOD OF                            604.    
          THE MINIMUM TIME INCREMENT ALLOWED IS                1.000E-07
          THE MAXIMUM TIME INCREMENT ALLOWED IS                 6.04    

          CREEP AND SWELLING EFFECTS ARE OMITTED IN THIS STEP

     THE SIZE OF THE TIME INCREMENT IS CONTROLLED BY -
          THE TEMPERATURE CHANGE PER INCREMENT NOT EXCEEDING           1.000E+03
          THE RATE DEPENDENCY WILL BE CONSIDERED IN THIS STEP

          CREEP AND SWELLING EFFECTS WILL BE IGNORED.

 CONVERGENCE TOLERANCE PARAMETERS FOR FORCE    
     CRITERION FOR RESIDUAL FORCE     FOR A NONLINEAR PROBLEM          5.000E-03
     CRITERION FOR DISP.    CORRECTION IN A NONLINEAR PROBLEM          1.000E-02
     INIT. VALUE OF TIME AVG. FORCE     IS TIME AVG. FORCE     IN PREVIOUS STEP
     AVERAGE FORCE     IS TIME AVERAGE FORCE    
     ALTERNATE CRIT. FOR RESIDUAL FORCE     FOR A NONLINEAR PROBLEM    2.000E-02
     CRITERION FOR ZERO FORCE     RELATIVE TO TIME AVRG. FORCE         1.000E-05
     CRITERION FOR RESIDUAL FORCE     WHEN THERE IS ZERO FLUX          1.000E-05
     CRITERION FOR DISP.    CORRECTION WHEN THERE IS ZERO FLUX         1.000E-03
     CRITERION FOR RESIDUAL FORCE     FOR A LINEAR INCREMENT           1.000E-08
     FIELD CONVERSION RATIO                                             1.00    
     CRITERION FOR ZERO FORCE     REL. TO TIME AVRG. MAX. FORCE        1.000E-05
     CRITERION FOR ZERO DISP.    RELATIVE TO CHARACTERISTIC LENGTH     1.000E-08

 CONVERGENCE TOLERANCE PARAMETERS FOR HEAT FLUX
     CRITERION FOR RESIDUAL HEAT FLUX FOR A NONLINEAR PROBLEM          5.000E-03
     CRITERION FOR TEMP.    CORRECTION IN A NONLINEAR PROBLEM          1.000E-02
     INIT. VALUE OF TIME AVG. HEAT FLUX IS TIME AVG. HEAT FLUX IN PREVIOUS STEP
     AVERAGE HEAT FLUX IS TIME AVERAGE HEAT FLUX
     ALTERNATE CRIT. FOR RESIDUAL HEAT FLUX FOR A NONLINEAR PROBLEM    2.000E-02
     CRITERION FOR ZERO HEAT FLUX RELATIVE TO TIME AVRG. HEAT FLUX     1.000E-05
     CRITERION FOR RESIDUAL HEAT FLUX WHEN THERE IS ZERO FLUX          1.000E-05
     CRITERION FOR TEMP.    CORRECTION WHEN THERE IS ZERO FLUX         1.000E-03
     CRITERION FOR RESIDUAL HEAT FLUX FOR A LINEAR INCREMENT           1.000E-08
     FIELD CONVERSION RATIO                                             1.00    
     CRITERION FOR ZERO HEAT FLUX REL. TO TIME AVRG. MAX. HEAT FLUX    1.000E-05

     VOLUMETRIC STRAIN COMPATIBILITY TOLERANCE FOR HYBRID SOLIDS       1.000E-05
     AXIAL STRAIN COMPATIBILITY TOLERANCE FOR HYBRID BEAMS             1.000E-05
     TRANS. SHEAR STRAIN COMPATIBILITY TOLERANCE FOR HYBRID BEAMS      1.000E-05
     SOFT CONTACT CONSTRAINT COMPATIBILITY TOLERANCE FOR P>P0          5.000E-03
     SOFT CONTACT CONSTRAINT COMPATIBILITY TOLERANCE FOR P=0.0         0.100    
     CONTACT FORCE ERROR TOLERANCE FOR CONVERT SDI=YES                 1.00    
     DISPLACEMENT COMPATIBILITY TOLERANCE FOR DCOUP ELEMENTS           1.000E-05
     ROTATION COMPATIBILITY TOLERANCE FOR DCOUP ELEMENTS               1.000E-05

 EQUILIBRIUM WILL BE CHECKED FOR SEVERE DISCONTINUITY ITERATIONS

 TIME INCREMENTATION CONTROL PARAMETERS:
     FIRST EQUILIBRIUM ITERATION FOR CONSECUTIVE DIVERGENCE CHECK              4
     EQUILIBRIUM ITERATION AT WHICH LOG. CONVERGENCE RATE CHECK BEGINS         8
     EQUILIBRIUM ITERATION AFTER WHICH ALTERNATE RESIDUAL IS USED              9
     MAXIMUM EQUILIBRIUM ITERATIONS ALLOWED                                   16
     EQUILIBRIUM ITERATION COUNT FOR CUT-BACK IN NEXT INCREMENT               10
     MAXIMUM EQUILIB. ITERS IN TWO INCREMENTS FOR TIME INCREMENT INCREASE      4
     MAXIMUM ITERATIONS FOR SEVERE DISCONTINUITIES                            50
     MAXIMUM ATTEMPTS ALLOWED IN AN INCREMENT                                  5
     MAXIMUM DISCON. ITERS IN TWO INCREMENTS FOR TIME INCREMENT INCREASE      50
     MAXIMUM CONTACT AUGMENTATIONS FOR *SURFACE BEHAVIOR,AUGMENTED LAGRANGE   50
     CONSECUTIVE INCS MEETING TIME INTEG. TOL. FOR TIME INC. INCREASE          3
     CUT-BACK FACTOR AFTER DIVERGENCE                                 0.2500    
     CUT-BACK FACTOR FOR TOO SLOW CONVERGENCE                         0.5000    
     CUT-BACK FACTOR AFTER TOO MANY EQUILIBRIUM ITERATIONS            0.7500    
     CUT-BACK FACTOR AFTER TOO MANY SEVERE DISCONTINUITY ITERATIONS   0.2500    
     CUT-BACK FACTOR AFTER PROBLEMS IN ELEMENT ASSEMBLY               0.2500    
     INCREASE FACTOR AFTER TWO INCREMENTS THAT CONVERGE QUICKLY        1.500    
     MAX. TIME INCREMENT INCREASE FACTOR ALLOWED                       1.500    
     MAX. TIME INCREMENT INCREASE FACTOR ALLOWED (DYNAMICS)            1.250    
     MAX. TIME INCREMENT INCREASE FACTOR ALLOWED (DIFFUSION)           2.000    
     MINIMUM TIME INCREMENT RATIO FOR EXTRAPOLATION TO OCCUR          0.1000    
     CUT-BACK FACTOR WHEN TIME INTEGRATION ACCURACY TOL. EXCEEDED     0.8500    
     MAX. RATIO OF TIME INTEG. MEASURE TO TOL. FOR TIME INC. INCREASE 0.7500    
     INCREASE FACTOR FOR TIME INCREMENT WHEN POSSIBLE                 0.8000    
     MIN. TIME INC. INCREASE FACTOR IN LINEAR TRANSIENT PROBLEMS      0.9500    
     MAX. RATIO OF TIME INCREMENT TO STABILITY LIMIT                   1.000    
     FRACTION OF STABILITY LIMIT FOR NEW TIME INCREMENT               0.9500    
     TIME INCREMENT INCREASE FACTOR BEFORE A TIME POINT                1.000    
     GLOBAL STABILIZATION CONTROL IS NOT USED

          PRINT OF INCREMENT NUMBER, TIME, ETC., EVERY    1  INCREMENTS

     THE MAXIMUM NUMBER OF INCREMENTS IN THIS STEP IS                 1000000

          LARGE DISPLACEMENT THEORY WILL BE USED

          UNSYMMETRIC MATRIX STORAGE AND SOLUTION WILL BE USED

     LINEAR EXTRAPOLATION WILL BE USED

     CHARACTERISTIC ELEMENT LENGTH     1.283E-04

     DETAILS REGARDING ACTUAL SOLUTION WAVEFRONT REQUESTED

     DETAILED OUTPUT OF DIAGNOSTICS TO DATABASE REQUESTED

     PRINT OF INCREMENT NUMBER, TIME, ETC., TO THE MESSAGE FILE EVERY     1  INCREMENTS

     ELEMENT OPERATIONS WILL BE CARRIED OUT IN PARALLEL USING   8 THREADS ON 1 DOMAIN

     COLLECTING STEP CONSTRAINT INFORMATION FOR OVERCONSTRAINT CHECKS


  INCREMENT     1 STARTS. ATTEMPT NUMBER  1, TIME INCREMENT   6.04    
 
     INITIAL ELEMENT LOAD BALANCE
            DOMAIN    1     THREAD    NUMBER OF ELEMENTS
                              1            15344
                              2            13480
                              3            15768
                              4            15696
                              5            15504
                              6            14440
                              7            15727
                              8            15736
 
	UNSYMMETRIC DIRECT SPARSE SOLVER RUNNING ON
 	1 HOST:        1 MPI RANK  x 8 THREADS
 	NUMBER OF EQUATIONS:     552528
 	NUMBER OF RHS:           1
 	NUMBER OF FLOPS:         2.519e+12

     CHECK POINT  START OF SOLVER     

     CHECK POINT  END OF SOLVER       

       ELAPSED USER TIME (SEC)      =   103.46    
       ELAPSED SYSTEM TIME (SEC)    =   4.9100    
       ELAPSED TOTAL CPU TIME (SEC) =   108.37    
       ELAPSED WALLCLOCK TIME (SEC) =           14

 ***WARNING: SOLVER PROBLEM.  ZERO PIVOT WHEN PROCESSING NODE 111307 INSTANCE 
             CHD4 D.O.F. 11
  Typically a zero pivot is associated with an overconstraint in the model. 
 However, Abaqus was not able to identify any chains of constraints that might 
 lead to an overconstraint at this node. This suggests that the model might be 
 in fact insufficiently constrained in this particular degree of freedom. 
 Please check the constraints used in this model. 


 ***WARNING: SOLVER PROBLEM.  ZERO PIVOT WHEN PROCESSING NODE 111304 INSTANCE 
             CHD4 D.O.F. 11
  Typically a zero pivot is associated with an overconstraint in the model. 
 However, Abaqus was not able to identify any chains of constraints that might 
 lead to an overconstraint at this node. This suggests that the model might be 
 in fact insufficiently constrained in this particular degree of freedom. 
 Please check the constraints used in this model. 


 ***WARNING: SOLVER PROBLEM.  ZERO PIVOT WHEN PROCESSING NODE 109767 INSTANCE 
             CHD4 D.O.F. 11
  Typically a zero pivot is associated with an overconstraint in the model. 
 However, Abaqus was not able to identify any chains of constraints that might 
 lead to an overconstraint at this node. This suggests that the model might be 
 in fact insufficiently constrained in this particular degree of freedom. 
 Please check the constraints used in this model. 


 ***WARNING: SOLVER PROBLEM.  ZERO PIVOT WHEN PROCESSING NODE 109770 INSTANCE 
             CHD4 D.O.F. 11
  Typically a zero pivot is associated with an overconstraint in the model. 
 However, Abaqus was not able to identify any chains of constraints that might 
 lead to an overconstraint at this node. This suggests that the model might be 
 in fact insufficiently constrained in this particular degree of freedom. 
 Please check the constraints used in this model. 


 ***WARNING: SOLVER PROBLEM.  ZERO PIVOT WHEN PROCESSING NODE 108230 INSTANCE 
             CHD4 D.O.F. 11
  Typically a zero pivot is associated with an overconstraint in the model. 
 However, Abaqus was not able to identify any chains of constraints that might 
 lead to an overconstraint at this node. This suggests that the model might be 
 in fact insufficiently constrained in this particular degree of freedom. 
 Please check the constraints used in this model. 


 ***WARNING: SOLVER PROBLEM.  ZERO PIVOT WHEN PROCESSING NODE 108233 INSTANCE 
             CHD4 D.O.F. 11
  Typically a zero pivot is associated with an overconstraint in the model. 
 However, Abaqus was not able to identify any chains of constraints that might 
 lead to an overconstraint at this node. This suggests that the model might be 
 in fact insufficiently constrained in this particular degree of freedom. 
 Please check the constraints used in this model. 


 ***WARNING: SOLVER PROBLEM.  ZERO PIVOT WHEN PROCESSING NODE 111190 INSTANCE 
             CHD4 D.O.F. 11
  Typically a zero pivot is associated with an overconstraint in the model. 
 However, Abaqus was not able to identify any chains of constraints that might 
 lead to an overconstraint at this node. This suggests that the model might be 
 in fact insufficiently constrained in this particular degree of freedom. 
 Please check the constraints used in this model. 


 ***WARNING: SOLVER PROBLEM.  ZERO PIVOT WHEN PROCESSING NODE 109653 INSTANCE 
             CHD4 D.O.F. 11
  Typically a zero pivot is associated with an overconstraint in the model. 
 However, Abaqus was not able to identify any chains of constraints that might 
 lead to an overconstraint at this node. This suggests that the model might be 
 in fact insufficiently constrained in this particular degree of freedom. 
 Please check the constraints used in this model. 


 ***WARNING: SOLVER PROBLEM.  ZERO PIVOT WHEN PROCESSING NODE 108116 INSTANCE 
             CHD4 D.O.F. 11
  Typically a zero pivot is associated with an overconstraint in the model. 
 However, Abaqus was not able to identify any chains of constraints that might 
 lead to an overconstraint at this node. This suggests that the model might be 
 in fact insufficiently constrained in this particular degree of freedom. 
 Please check the constraints used in this model. 


 ***WARNING: SOLVER PROBLEM.  ZERO PIVOT WHEN PROCESSING NODE 106696 INSTANCE 
             CHD4 D.O.F. 11
  Typically a zero pivot is associated with an overconstraint in the model. 
 However, Abaqus was not able to identify any chains of constraints that might 
 lead to an overconstraint at this node. This suggests that the model might be 
 in fact insufficiently constrained in this particular degree of freedom. 
 Please check the constraints used in this model. 


 ***WARNING: SOLVER PROBLEM.  ZERO PIVOT WHEN PROCESSING NODE 106579 INSTANCE 
             CHD4 D.O.F. 11
  Typically a zero pivot is associated with an overconstraint in the model. 
 However, Abaqus was not able to identify any chains of constraints that might 
 lead to an overconstraint at this node. This suggests that the model might be 
 in fact insufficiently constrained in this particular degree of freedom. 
 Please check the constraints used in this model. 


 ***WARNING: SOLVER PROBLEM.  ZERO PIVOT WHEN PROCESSING NODE 106693 INSTANCE 
             CHD4 D.O.F. 11
  Typically a zero pivot is associated with an overconstraint in the model. 
 However, Abaqus was not able to identify any chains of constraints that might 
 lead to an overconstraint at this node. This suggests that the model might be 
 in fact insufficiently constrained in this particular degree of freedom. 
 Please check the constraints used in this model. 


 ***WARNING: SOLVER PROBLEM.  ZERO PIVOT WHEN PROCESSING NODE 106576 INSTANCE 
             CHD4 D.O.F. 11
  Typically a zero pivot is associated with an overconstraint in the model. 
 However, Abaqus was not able to identify any chains of constraints that might 
 lead to an overconstraint at this node. This suggests that the model might be 
 in fact insufficiently constrained in this particular degree of freedom. 
 Please check the constraints used in this model. 


 ***WARNING: SOLVER PROBLEM.  ZERO PIVOT WHEN PROCESSING NODE 108113 INSTANCE 
             CHD4 D.O.F. 11
  Typically a zero pivot is associated with an overconstraint in the model. 
 However, Abaqus was not able to identify any chains of constraints that might 
 lead to an overconstraint at this node. This suggests that the model might be 
 in fact insufficiently constrained in this particular degree of freedom. 
 Please check the constraints used in this model. 


 ***WARNING: SOLVER PROBLEM.  ZERO PIVOT WHEN PROCESSING NODE 102959 INSTANCE 
             CHD4 D.O.F. 11
  Typically a zero pivot is associated with an overconstraint in the model. 
 However, Abaqus was not able to identify any chains of constraints that might 
 lead to an overconstraint at this node. This suggests that the model might be 
 in fact insufficiently constrained in this particular degree of freedom. 
 Please check the constraints used in this model. 


 ***WARNING: SOLVER PROBLEM.  ZERO PIVOT WHEN PROCESSING NODE 128964 INSTANCE 
             CHD4 D.O.F. 11
  Typically a zero pivot is associated with an overconstraint in the model. 
 However, Abaqus was not able to identify any chains of constraints that might 
 lead to an overconstraint at this node. This suggests that the model might be 
 in fact insufficiently constrained in this particular degree of freedom. 
 Please check the constraints used in this model. 


 ***WARNING: SOLVER PROBLEM.  ZERO PIVOT WHEN PROCESSING NODE 129191 INSTANCE 
             CHD4 D.O.F. 11
  Typically a zero pivot is associated with an overconstraint in the model. 
 However, Abaqus was not able to identify any chains of constraints that might 
 lead to an overconstraint at this node. This suggests that the model might be 
 in fact insufficiently constrained in this particular degree of freedom. 
 Please check the constraints used in this model. 


 ***WARNING: SOLVER PROBLEM.  ZERO PIVOT WHEN PROCESSING NODE 129284 INSTANCE 
             CHD4 D.O.F. 11
  Typically a zero pivot is associated with an overconstraint in the model. 
 However, Abaqus was not able to identify any chains of constraints that might 
 lead to an overconstraint at this node. This suggests that the model might be 
 in fact insufficiently constrained in this particular degree of freedom. 
 Please check the constraints used in this model. 


 ***WARNING: SOLVER PROBLEM.  ZERO PIVOT WHEN PROCESSING NODE 129080 INSTANCE 
             CHD4 D.O.F. 11
  Typically a zero pivot is associated with an overconstraint in the model. 
 However, Abaqus was not able to identify any chains of constraints that might 
 lead to an overconstraint at this node. This suggests that the model might be 
 in fact insufficiently constrained in this particular degree of freedom. 
 Please check the constraints used in this model. 


 ***WARNING: SOLVER PROBLEM.  ZERO PIVOT WHEN PROCESSING NODE 129078 INSTANCE 
             CHD4 D.O.F. 11
  Typically a zero pivot is associated with an overconstraint in the model. 
 However, Abaqus was not able to identify any chains of constraints that might 
 lead to an overconstraint at this node. This suggests that the model might be 
 in fact insufficiently constrained in this particular degree of freedom. 
 Please check the constraints used in this model. 


 ***WARNING: SOLVER PROBLEM.  ZERO PIVOT WHEN PROCESSING NODE 128962 INSTANCE 
             CHD4 D.O.F. 11
  Typically a zero pivot is associated with an overconstraint in the model. 
 However, Abaqus was not able to identify any chains of constraints that might 
 lead to an overconstraint at this node. This suggests that the model might be 
 in fact insufficiently constrained in this particular degree of freedom. 
 Please check the constraints used in this model. 


 ***WARNING: SOLVER PROBLEM.  ZERO PIVOT WHEN PROCESSING NODE 111187 INSTANCE 
             CHD4 D.O.F. 11
  Typically a zero pivot is associated with an overconstraint in the model. 
 However, Abaqus was not able to identify any chains of constraints that might 
 lead to an overconstraint at this node. This suggests that the model might be 
 in fact insufficiently constrained in this particular degree of freedom. 
 Please check the constraints used in this model. 


 ***WARNING: SOLVER PROBLEM.  ZERO PIVOT WHEN PROCESSING NODE 102957 INSTANCE 
             CHD4 D.O.F. 11
  Typically a zero pivot is associated with an overconstraint in the model. 
 However, Abaqus was not able to identify any chains of constraints that might 
 lead to an overconstraint at this node. This suggests that the model might be 
 in fact insufficiently constrained in this particular degree of freedom. 
 Please check the constraints used in this model. 


 ***WARNING: SOLVER PROBLEM.  ZERO PIVOT WHEN PROCESSING NODE 102958 INSTANCE 
             CHD4 D.O.F. 11
  Typically a zero pivot is associated with an overconstraint in the model. 
 However, Abaqus was not able to identify any chains of constraints that might 
 lead to an overconstraint at this node. This suggests that the model might be 
 in fact insufficiently constrained in this particular degree of freedom. 
 Please check the constraints used in this model. 


 ***WARNING: SOLVER PROBLEM.  ZERO PIVOT WHEN PROCESSING NODE 109650 INSTANCE 
             CHD4 D.O.F. 11
  Typically a zero pivot is associated with an overconstraint in the model. 
 However, Abaqus was not able to identify any chains of constraints that might 
 lead to an overconstraint at this node. This suggests that the model might be 
 in fact insufficiently constrained in this particular degree of freedom. 
 Please check the constraints used in this model. 


 ***WARNING: SOLVER PROBLEM.  ZERO PIVOT WHEN PROCESSING NODE 126077 INSTANCE 
             CHD4 D.O.F. 11
  Typically a zero pivot is associated with an overconstraint in the model. 
 However, Abaqus was not able to identify any chains of constraints that might 
 lead to an overconstraint at this node. This suggests that the model might be 
 in fact insufficiently constrained in this particular degree of freedom. 
 Please check the constraints used in this model. 


 ***WARNING: SOLVER PROBLEM.  ZERO PIVOT WHEN PROCESSING NODE 126170 INSTANCE 
             CHD4 D.O.F. 11
  Typically a zero pivot is associated with an overconstraint in the model. 
 However, Abaqus was not able to identify any chains of constraints that might 
 lead to an overconstraint at this node. This suggests that the model might be 
 in fact insufficiently constrained in this particular degree of freedom. 
 Please check the constraints used in this model. 


 ***WARNING: SOLVER PROBLEM.  ZERO PIVOT WHEN PROCESSING NODE 124613 INSTANCE 
             CHD4 D.O.F. 11
  Typically a zero pivot is associated with an overconstraint in the model. 
 However, Abaqus was not able to identify any chains of constraints that might 
 lead to an overconstraint at this node. This suggests that the model might be 
 in fact insufficiently constrained in this particular degree of freedom. 
 Please check the constraints used in this model. 


 ***WARNING: SOLVER PROBLEM.  ZERO PIVOT WHEN PROCESSING NODE 124520 INSTANCE 
             CHD4 D.O.F. 11
  Typically a zero pivot is associated with an overconstraint in the model. 
 However, Abaqus was not able to identify any chains of constraints that might 
 lead to an overconstraint at this node. This suggests that the model might be 
 in fact insufficiently constrained in this particular degree of freedom. 
 Please check the constraints used in this model. 


 ***WARNING: SOLVER PROBLEM.  ZERO PIVOT WHEN PROCESSING NODE 125850 INSTANCE 
             CHD4 D.O.F. 11
  Typically a zero pivot is associated with an overconstraint in the model. 
 However, Abaqus was not able to identify any chains of constraints that might 
 lead to an overconstraint at this node. This suggests that the model might be 
 in fact insufficiently constrained in this particular degree of freedom. 
 Please check the constraints used in this model. 


 ***WARNING: SOLVER PROBLEM.  ZERO PIVOT WHEN PROCESSING NODE 125848 INSTANCE 
             CHD4 D.O.F. 11
  Typically a zero pivot is associated with an overconstraint in the model. 
 However, Abaqus was not able to identify any chains of constraints that might 
 lead to an overconstraint at this node. This suggests that the model might be 
 in fact insufficiently constrained in this particular degree of freedom. 
 Please check the constraints used in this model. 


 ***WARNING: SOLVER PROBLEM.  ZERO PIVOT WHEN PROCESSING NODE 125966 INSTANCE 
             CHD4 D.O.F. 11
  Typically a zero pivot is associated with an overconstraint in the model. 
 However, Abaqus was not able to identify any chains of constraints that might 
 lead to an overconstraint at this node. This suggests that the model might be 
 in fact insufficiently constrained in this particular degree of freedom. 
 Please check the constraints used in this model. 


 ***WARNING: SOLVER PROBLEM.  ZERO PIVOT WHEN PROCESSING NODE 124291 INSTANCE 
             CHD4 D.O.F. 11
  Typically a zero pivot is associated with an overconstraint in the model. 
 However, Abaqus was not able to identify any chains of constraints that might 
 lead to an overconstraint at this node. This suggests that the model might be 
 in fact insufficiently constrained in this particular degree of freedom. 
 Please check the constraints used in this model. 


 ***WARNING: SOLVER PROBLEM.  ZERO PIVOT WHEN PROCESSING NODE 124293 INSTANCE 
             CHD4 D.O.F. 11
  Typically a zero pivot is associated with an overconstraint in the model. 
 However, Abaqus was not able to identify any chains of constraints that might 
 lead to an overconstraint at this node. This suggests that the model might be 
 in fact insufficiently constrained in this particular degree of freedom. 
 Please check the constraints used in this model. 


 ***WARNING: SOLVER PROBLEM.  ZERO PIVOT WHEN PROCESSING NODE 124407 INSTANCE 
             CHD4 D.O.F. 11
  Typically a zero pivot is associated with an overconstraint in the model. 
 However, Abaqus was not able to identify any chains of constraints that might 
 lead to an overconstraint at this node. This suggests that the model might be 
 in fact insufficiently constrained in this particular degree of freedom. 
 Please check the constraints used in this model. 


 ***WARNING: SOLVER PROBLEM.  ZERO PIVOT WHEN PROCESSING NODE 124409 INSTANCE 
             CHD4 D.O.F. 11
  Typically a zero pivot is associated with an overconstraint in the model. 
 However, Abaqus was not able to identify any chains of constraints that might 
 lead to an overconstraint at this node. This suggests that the model might be 
 in fact insufficiently constrained in this particular degree of freedom. 
 Please check the constraints used in this model. 


 ***WARNING: SOLVER PROBLEM.  ZERO PIVOT WHEN PROCESSING NODE 125964 INSTANCE 
             CHD4 D.O.F. 11
  Typically a zero pivot is associated with an overconstraint in the model. 
 However, Abaqus was not able to identify any chains of constraints that might 
 lead to an overconstraint at this node. This suggests that the model might be 
 in fact insufficiently constrained in this particular degree of freedom. 
 Please check the constraints used in this model. 


 ***WARNING: SOLVER PROBLEM.  ZERO PIVOT WHEN PROCESSING NODE 102771 INSTANCE 
             CHD4 D.O.F. 11
  Typically a zero pivot is associated with an overconstraint in the model. 
 However, Abaqus was not able to identify any chains of constraints that might 
 lead to an overconstraint at this node. This suggests that the model might be 
 in fact insufficiently constrained in this particular degree of freedom. 
 Please check the constraints used in this model. 


 ***WARNING: SOLVER PROBLEM.  ZERO PIVOT WHEN PROCESSING NODE 102772 INSTANCE 
             CHD4 D.O.F. 11
  Typically a zero pivot is associated with an overconstraint in the model. 
 However, Abaqus was not able to identify any chains of constraints that might 
 lead to an overconstraint at this node. This suggests that the model might be 
 in fact insufficiently constrained in this particular degree of freedom. 
 Please check the constraints used in this model. 


 ***WARNING: SOLVER PROBLEM.  ZERO PIVOT WHEN PROCESSING NODE 102833 INSTANCE 
             CHD4 D.O.F. 11
  Typically a zero pivot is associated with an overconstraint in the model. 
 However, Abaqus was not able to identify any chains of constraints that might 
 lead to an overconstraint at this node. This suggests that the model might be 
 in fact insufficiently constrained in this particular degree of freedom. 
 Please check the constraints used in this model. 


 ***WARNING: SOLVER PROBLEM.  ZERO PIVOT WHEN PROCESSING NODE 102834 INSTANCE 
             CHD4 D.O.F. 11
  Typically a zero pivot is associated with an overconstraint in the model. 
 However, Abaqus was not able to identify any chains of constraints that might 
 lead to an overconstraint at this node. This suggests that the model might be 
 in fact insufficiently constrained in this particular degree of freedom. 
 Please check the constraints used in this model. 


 ***WARNING: SOLVER PROBLEM.  ZERO PIVOT WHEN PROCESSING NODE 102895 INSTANCE 
             CHD4 D.O.F. 11
  Typically a zero pivot is associated with an overconstraint in the model. 
 However, Abaqus was not able to identify any chains of constraints that might 
 lead to an overconstraint at this node. This suggests that the model might be 
 in fact insufficiently constrained in this particular degree of freedom. 
 Please check the constraints used in this model. 


 ***WARNING: SOLVER PROBLEM.  ZERO PIVOT WHEN PROCESSING NODE 102896 INSTANCE 
             CHD4 D.O.F. 11
  Typically a zero pivot is associated with an overconstraint in the model. 
 However, Abaqus was not able to identify any chains of constraints that might 
 lead to an overconstraint at this node. This suggests that the model might be 
 in fact insufficiently constrained in this particular degree of freedom. 
 Please check the constraints used in this model. 


 ***WARNING: SOLVER PROBLEM.  ZERO PIVOT WHEN PROCESSING NODE 127405 INSTANCE 
             CHD4 D.O.F. 11
  Typically a zero pivot is associated with an overconstraint in the model. 
 However, Abaqus was not able to identify any chains of constraints that might 
 lead to an overconstraint at this node. This suggests that the model might be 
 in fact insufficiently constrained in this particular degree of freedom. 
 Please check the constraints used in this model. 


 ***WARNING: SOLVER PROBLEM.  ZERO PIVOT WHEN PROCESSING NODE 127407 INSTANCE 
             CHD4 D.O.F. 11
  Typically a zero pivot is associated with an overconstraint in the model. 
 However, Abaqus was not able to identify any chains of constraints that might 
 lead to an overconstraint at this node. This suggests that the model might be 
 in fact insufficiently constrained in this particular degree of freedom. 
 Please check the constraints used in this model. 


 ***WARNING: SOLVER PROBLEM.  ZERO PIVOT WHEN PROCESSING NODE 127521 INSTANCE 
             CHD4 D.O.F. 11
  Typically a zero pivot is associated with an overconstraint in the model. 
 However, Abaqus was not able to identify any chains of constraints that might 
 lead to an overconstraint at this node. This suggests that the model might be 
 in fact insufficiently constrained in this particular degree of freedom. 
 Please check the constraints used in this model. 


 ***WARNING: SOLVER PROBLEM.  ZERO PIVOT WHEN PROCESSING NODE 127523 INSTANCE 
             CHD4 D.O.F. 11
  Typically a zero pivot is associated with an overconstraint in the model. 
 However, Abaqus was not able to identify any chains of constraints that might 
 lead to an overconstraint at this node. This suggests that the model might be 
 in fact insufficiently constrained in this particular degree of freedom. 
 Please check the constraints used in this model. 


 ***WARNING: SOLVER PROBLEM.  ZERO PIVOT WHEN PROCESSING NODE 127634 INSTANCE 
             CHD4 D.O.F. 11
  Typically a zero pivot is associated with an overconstraint in the model. 
 However, Abaqus was not able to identify any chains of constraints that might 
 lead to an overconstraint at this node. This suggests that the model might be 
 in fact insufficiently constrained in this particular degree of freedom. 
 Please check the constraints used in this model. 


 ***WARNING: SOLVER PROBLEM.  ZERO PIVOT WHEN PROCESSING NODE 127727 INSTANCE 
             CHD4 D.O.F. 11
  Typically a zero pivot is associated with an overconstraint in the model. 
 However, Abaqus was not able to identify any chains of constraints that might 
 lead to an overconstraint at this node. This suggests that the model might be 
 in fact insufficiently constrained in this particular degree of freedom. 
 Please check the constraints used in this model. 


 ***WARNING: Solver problem. Zero pivot when processing D.O.F. 11 of 49 nodes. 
             The nodes have been identified in node set 
             WarnNodeSolvProbZeroPiv_11_2_1_1_1.

               CONVERGENCE CHECKS FOR EQUILIBRIUM ITERATION     1


 AVERAGE FORCE                      2.279E-02   TIME AVG. FORCE       2.279E-02
 LARGEST RESIDUAL FORCE             9.335E-04   AT NODE       1864   DOF  3
   INSTANCE: CHD4                                                                            
 LARGEST INCREMENT OF DISP.         1.510E-05   AT NODE         15   DOF  2
   INSTANCE: CHD4                                                                            
 LARGEST CORRECTION TO DISP.        1.510E-05   AT NODE         15   DOF  2
   INSTANCE: CHD4                                                                            
          FORCE     EQUILIBRIUM NOT ACHIEVED WITHIN TOLERANCE.

 AVERAGE HEAT FLUX                  1.645E-14   TIME AVG. HEAT FLUX   1.000E-02
 LARGEST RESIDUAL HEAT FLUX         5.085E-17   AT NODE       8468   DOF 11
   INSTANCE: CHD4                                                                            
 LARGEST INCREMENT OF TEMP.         1.455E-02   AT NODE      66210   DOF 11
   INSTANCE: CHD4                                                                            
 LARGEST CORRECTION TO TEMP.        1.455E-02   AT NODE      66210   DOF 11
   INSTANCE: CHD4                                                                            
          THERE IS ZERO HEAT FLUX EVERYWHERE
 

 ***WARNING: THERE IS ZERO HEAT FLUX EVERYWHERE IN THE MODEL BASED ON THE 
             DEFAULT CRITERION. PLEASE CHECK THE VALUE OF THE AVERAGE HEAT FLUX 
             DURING THE CURRENT ITERATION TO VERIFY THAT THE HEAT FLUX IS SMALL 
             ENOUGH TO BE TREATED AS ZERO. IF NOT, PLEASE USE THE SOLUTION 
             CONTROLS TO RESET THE CRITERION FOR ZERO HEAT FLUX.
 
	UNSYMMETRIC DIRECT SPARSE SOLVER RUNNING ON
 	1 HOST:        1 MPI RANK  x 8 THREADS
 	NUMBER OF EQUATIONS:     552528
 	NUMBER OF RHS:           1
 	NUMBER OF FLOPS:         2.519e+12

     CHECK POINT  START OF SOLVER     

     CHECK POINT  END OF SOLVER       

       ELAPSED USER TIME (SEC)      =   105.08    
       ELAPSED SYSTEM TIME (SEC)    =  0.58000    
       ELAPSED TOTAL CPU TIME (SEC) =   105.66    
       ELAPSED WALLCLOCK TIME (SEC) =           13

               CONVERGENCE CHECKS FOR EQUILIBRIUM ITERATION     2


 AVERAGE FORCE                      2.279E-02   TIME AVG. FORCE       2.279E-02
 LARGEST RESIDUAL FORCE            -9.338E-09   AT NODE       2312   DOF  2
   INSTANCE: CHD4                                                                            
 LARGEST INCREMENT OF DISP.         1.510E-05   AT NODE         15   DOF  2
   INSTANCE: CHD4                                                                            
 LARGEST CORRECTION TO DISP.        6.955E-11   AT NODE       1922   DOF  2
   INSTANCE: CHD4                                                                            
          THE FORCE     EQUILIBRIUM EQUATIONS HAVE CONVERGED

 AVERAGE HEAT FLUX                  1.645E-14   TIME AVG. HEAT FLUX   1.000E-02
 LARGEST RESIDUAL HEAT FLUX        -1.754E-21   AT NODE       3425   DOF 11
   INSTANCE: CHD4                                                                            
 LARGEST INCREMENT OF TEMP.         1.455E-02   AT NODE      66210   DOF 11
   INSTANCE: CHD4                                                                            
 LARGEST CORRECTION TO TEMP.        2.338E-06   AT NODE      84604   DOF 11
   INSTANCE: CHD4                                                                            
          THERE IS ZERO HEAT FLUX EVERYWHERE
 

 ***WARNING: THERE IS ZERO HEAT FLUX EVERYWHERE IN THE MODEL BASED ON THE 
             DEFAULT CRITERION. PLEASE CHECK THE VALUE OF THE AVERAGE HEAT FLUX 
             DURING THE CURRENT ITERATION TO VERIFY THAT THE HEAT FLUX IS SMALL 
             ENOUGH TO BE TREATED AS ZERO. IF NOT, PLEASE USE THE SOLUTION 
             CONTROLS TO RESET THE CRITERION FOR ZERO HEAT FLUX.

 MAXIMUM NON-PRESCRIBED INCREMENT IN TEMPERATURE IS   1.455E-02

 ITERATION SUMMARY FOR THE INCREMENT:   2 TOTAL ITERATIONS, OF WHICH
   0 ARE SEVERE DISCONTINUITY ITERATIONS AND  2 ARE EQUILIBRIUM ITERATIONS.

 TIME INCREMENT COMPLETED   6.04    ,  FRACTION OF STEP COMPLETED  1.000E-02
 STEP TIME COMPLETED        6.04    ,  TOTAL TIME COMPLETED        1.806E+03


  INCREMENT     2 STARTS. ATTEMPT NUMBER  1, TIME INCREMENT   6.04    
 
	UNSYMMETRIC DIRECT SPARSE SOLVER RUNNING ON
 	1 HOST:        1 MPI RANK  x 8 THREADS
 	NUMBER OF EQUATIONS:     552528
 	NUMBER OF RHS:           1
 	NUMBER OF FLOPS:         2.519e+12

     CHECK POINT  START OF SOLVER     

     CHECK POINT  END OF SOLVER       

       ELAPSED USER TIME (SEC)      =   104.14    
       ELAPSED SYSTEM TIME (SEC)    =  0.54000    
       ELAPSED TOTAL CPU TIME (SEC) =   104.68    
       ELAPSED WALLCLOCK TIME (SEC) =           14

               CONVERGENCE CHECKS FOR EQUILIBRIUM ITERATION     1


 AVERAGE FORCE                      5.040E-02   TIME AVG. FORCE       3.660E-02
 LARGEST RESIDUAL FORCE            -1.580E-08   AT NODE        576   DOF  2
   INSTANCE: CHD4                                                                            
 LARGEST INCREMENT OF DISP.         1.510E-05   AT NODE         15   DOF  2
   INSTANCE: CHD4                                                                            
 LARGEST CORRECTION TO DISP.        1.321E-10   AT NODE       1922   DOF  2
   INSTANCE: CHD4                                                                            
          THE FORCE     EQUILIBRIUM EQUATIONS HAVE CONVERGED

 AVERAGE HEAT FLUX                  1.636E-14   TIME AVG. HEAT FLUX   1.000E-02
 LARGEST RESIDUAL HEAT FLUX        -4.858E-21   AT NODE       3425   DOF 11
   INSTANCE: CHD4                                                                            
 LARGEST INCREMENT OF TEMP.         1.448E-02   AT NODE      66210   DOF 11
   INSTANCE: CHD4                                                                            
 LARGEST CORRECTION TO TEMP.        7.236E-04   AT NODE      87454   DOF 11
   INSTANCE: CHD4                                                                            
          THERE IS ZERO HEAT FLUX EVERYWHERE
 

 ***WARNING: THERE IS ZERO HEAT FLUX EVERYWHERE IN THE MODEL BASED ON THE 
             DEFAULT CRITERION. PLEASE CHECK THE VALUE OF THE AVERAGE HEAT FLUX 
             DURING THE CURRENT ITERATION TO VERIFY THAT THE HEAT FLUX IS SMALL 
             ENOUGH TO BE TREATED AS ZERO. IF NOT, PLEASE USE THE SOLUTION 
             CONTROLS TO RESET THE CRITERION FOR ZERO HEAT FLUX.

 MAXIMUM NON-PRESCRIBED INCREMENT IN TEMPERATURE IS   1.448E-02
          TIME INCREMENT MAY NOW INCREASE TO     6.04    

 ITERATION SUMMARY FOR THE INCREMENT:   1 TOTAL ITERATIONS, OF WHICH
   0 ARE SEVERE DISCONTINUITY ITERATIONS AND  1 ARE EQUILIBRIUM ITERATIONS.

 TIME INCREMENT COMPLETED   6.04    ,  FRACTION OF STEP COMPLETED  2.000E-02
 STEP TIME COMPLETED        12.1    ,  TOTAL TIME COMPLETED        1.812E+03


  INCREMENT     3 STARTS. ATTEMPT NUMBER  1, TIME INCREMENT   6.04    
 
	UNSYMMETRIC DIRECT SPARSE SOLVER RUNNING ON
 	1 HOST:        1 MPI RANK  x 8 THREADS
 	NUMBER OF EQUATIONS:     552528
 	NUMBER OF RHS:           1
 	NUMBER OF FLOPS:         2.519e+12

     CHECK POINT  START OF SOLVER     

     CHECK POINT  END OF SOLVER       

       ELAPSED USER TIME (SEC)      =   104.56    
       ELAPSED SYSTEM TIME (SEC)    =  0.52000    
       ELAPSED TOTAL CPU TIME (SEC) =   105.08    
       ELAPSED WALLCLOCK TIME (SEC) =           13

               CONVERGENCE CHECKS FOR EQUILIBRIUM ITERATION     1


 AVERAGE FORCE                      7.560E-02   TIME AVG. FORCE       4.960E-02
 LARGEST RESIDUAL FORCE            -2.268E-08   AT NODE       1396   DOF  2
   INSTANCE: CHD4                                                                            
 LARGEST INCREMENT OF DISP.         1.510E-05   AT NODE         15   DOF  2
   INSTANCE: CHD4                                                                            
 LARGEST CORRECTION TO DISP.        1.321E-10   AT NODE       1922   DOF  2
   INSTANCE: CHD4                                                                            
          THE FORCE     EQUILIBRIUM EQUATIONS HAVE CONVERGED

 AVERAGE HEAT FLUX                  1.626E-14   TIME AVG. HEAT FLUX   1.000E-02
 LARGEST RESIDUAL HEAT FLUX        -4.829E-21   AT NODE       3425   DOF 11
   INSTANCE: CHD4                                                                            
 LARGEST INCREMENT OF TEMP.         1.441E-02   AT NODE      14126   DOF 11
   INSTANCE: CHD4                                                                            
 LARGEST CORRECTION TO TEMP.       -2.458E-04   AT NODE      44477   DOF 11
   INSTANCE: CHD4                                                                            
          THERE IS ZERO HEAT FLUX EVERYWHERE
 

 ***WARNING: THERE IS ZERO HEAT FLUX EVERYWHERE IN THE MODEL BASED ON THE 
             DEFAULT CRITERION. PLEASE CHECK THE VALUE OF THE AVERAGE HEAT FLUX 
             DURING THE CURRENT ITERATION TO VERIFY THAT THE HEAT FLUX IS SMALL 
             ENOUGH TO BE TREATED AS ZERO. IF NOT, PLEASE USE THE SOLUTION 
             CONTROLS TO RESET THE CRITERION FOR ZERO HEAT FLUX.

 MAXIMUM NON-PRESCRIBED INCREMENT IN TEMPERATURE IS   1.441E-02

 ITERATION SUMMARY FOR THE INCREMENT:   1 TOTAL ITERATIONS, OF WHICH
   0 ARE SEVERE DISCONTINUITY ITERATIONS AND  1 ARE EQUILIBRIUM ITERATIONS.

 TIME INCREMENT COMPLETED   6.04    ,  FRACTION OF STEP COMPLETED  3.000E-02
 STEP TIME COMPLETED        18.1    ,  TOTAL TIME COMPLETED        1.818E+03


  INCREMENT     4 STARTS. ATTEMPT NUMBER  1, TIME INCREMENT   6.04    
 
	UNSYMMETRIC DIRECT SPARSE SOLVER RUNNING ON
 	1 HOST:        1 MPI RANK  x 8 THREADS
 	NUMBER OF EQUATIONS:     552528
 	NUMBER OF RHS:           1
 	NUMBER OF FLOPS:         2.519e+12

     CHECK POINT  START OF SOLVER     

     CHECK POINT  END OF SOLVER       

       ELAPSED USER TIME (SEC)      =   104.24    
       ELAPSED SYSTEM TIME (SEC)    =  0.47000    
       ELAPSED TOTAL CPU TIME (SEC) =   104.71    
       ELAPSED WALLCLOCK TIME (SEC) =           13

               CONVERGENCE CHECKS FOR EQUILIBRIUM ITERATION     1


 AVERAGE FORCE                      0.101       TIME AVG. FORCE       6.240E-02
 LARGEST RESIDUAL FORCE            -3.249E-08   AT NODE       1396   DOF  2
   INSTANCE: CHD4                                                                            
 LARGEST INCREMENT OF DISP.         1.510E-05   AT NODE         15   DOF  2
   INSTANCE: CHD4                                                                            
 LARGEST CORRECTION TO DISP.        1.321E-10   AT NODE       1922   DOF  2
   INSTANCE: CHD4                                                                            
          THE FORCE     EQUILIBRIUM EQUATIONS HAVE CONVERGED

 AVERAGE HEAT FLUX                  1.617E-14   TIME AVG. HEAT FLUX   1.000E-02
 LARGEST RESIDUAL HEAT FLUX        -4.801E-21   AT NODE       3425   DOF 11
   INSTANCE: CHD4                                                                            
 LARGEST INCREMENT OF TEMP.         1.439E-02   AT NODE      14126   DOF 11
   INSTANCE: CHD4                                                                            
 LARGEST CORRECTION TO TEMP.       -2.019E-04   AT NODE      24575   DOF 11
   INSTANCE: CHD4                                                                            
          THERE IS ZERO HEAT FLUX EVERYWHERE
 

 ***WARNING: THERE IS ZERO HEAT FLUX EVERYWHERE IN THE MODEL BASED ON THE 
             DEFAULT CRITERION. PLEASE CHECK THE VALUE OF THE AVERAGE HEAT FLUX 
             DURING THE CURRENT ITERATION TO VERIFY THAT THE HEAT FLUX IS SMALL 
             ENOUGH TO BE TREATED AS ZERO. IF NOT, PLEASE USE THE SOLUTION 
             CONTROLS TO RESET THE CRITERION FOR ZERO HEAT FLUX.

 MAXIMUM NON-PRESCRIBED INCREMENT IN TEMPERATURE IS   1.439E-02

 ITERATION SUMMARY FOR THE INCREMENT:   1 TOTAL ITERATIONS, OF WHICH
   0 ARE SEVERE DISCONTINUITY ITERATIONS AND  1 ARE EQUILIBRIUM ITERATIONS.

 TIME INCREMENT COMPLETED   6.04    ,  FRACTION OF STEP COMPLETED  4.000E-02
 STEP TIME COMPLETED        24.2    ,  TOTAL TIME COMPLETED        1.824E+03


  INCREMENT     5 STARTS. ATTEMPT NUMBER  1, TIME INCREMENT   6.04    
 
	UNSYMMETRIC DIRECT SPARSE SOLVER RUNNING ON
 	1 HOST:        1 MPI RANK  x 8 THREADS
 	NUMBER OF EQUATIONS:     552528
 	NUMBER OF RHS:           1
 	NUMBER OF FLOPS:         2.519e+12

     CHECK POINT  START OF SOLVER     

     CHECK POINT  END OF SOLVER       

       ELAPSED USER TIME (SEC)      =   104.38    
       ELAPSED SYSTEM TIME (SEC)    =  0.47000    
       ELAPSED TOTAL CPU TIME (SEC) =   104.85    
       ELAPSED WALLCLOCK TIME (SEC) =           13

               CONVERGENCE CHECKS FOR EQUILIBRIUM ITERATION     1


 AVERAGE FORCE                      0.126       TIME AVG. FORCE       7.511E-02
 LARGEST RESIDUAL FORCE            -4.231E-08   AT NODE       1396   DOF  2
   INSTANCE: CHD4                                                                            
 LARGEST INCREMENT OF DISP.         1.510E-05   AT NODE         15   DOF  2
   INSTANCE: CHD4                                                                            
 LARGEST CORRECTION TO DISP.        1.320E-10   AT NODE       1922   DOF  2
   INSTANCE: CHD4                                                                            
          THE FORCE     EQUILIBRIUM EQUATIONS HAVE CONVERGED

 AVERAGE HEAT FLUX                  1.608E-14   TIME AVG. HEAT FLUX   1.000E-02
 LARGEST RESIDUAL HEAT FLUX        -4.772E-21   AT NODE       3425   DOF 11
   INSTANCE: CHD4                                                                            
 LARGEST INCREMENT OF TEMP.         1.437E-02   AT NODE      14126   DOF 11
   INSTANCE: CHD4                                                                            
 LARGEST CORRECTION TO TEMP.       -1.690E-04   AT NODE      44479   DOF 11
   INSTANCE: CHD4                                                                            
          THERE IS ZERO HEAT FLUX EVERYWHERE
 

 ***WARNING: THERE IS ZERO HEAT FLUX EVERYWHERE IN THE MODEL BASED ON THE 
             DEFAULT CRITERION. PLEASE CHECK THE VALUE OF THE AVERAGE HEAT FLUX 
             DURING THE CURRENT ITERATION TO VERIFY THAT THE HEAT FLUX IS SMALL 
             ENOUGH TO BE TREATED AS ZERO. IF NOT, PLEASE USE THE SOLUTION 
             CONTROLS TO RESET THE CRITERION FOR ZERO HEAT FLUX.

 MAXIMUM NON-PRESCRIBED INCREMENT IN TEMPERATURE IS   1.437E-02

 ITERATION SUMMARY FOR THE INCREMENT:   1 TOTAL ITERATIONS, OF WHICH
   0 ARE SEVERE DISCONTINUITY ITERATIONS AND  1 ARE EQUILIBRIUM ITERATIONS.

 TIME INCREMENT COMPLETED   6.04    ,  FRACTION OF STEP COMPLETED  5.000E-02
 STEP TIME COMPLETED        30.2    ,  TOTAL TIME COMPLETED        1.830E+03


  INCREMENT     6 STARTS. ATTEMPT NUMBER  1, TIME INCREMENT   6.04    
 
	UNSYMMETRIC DIRECT SPARSE SOLVER RUNNING ON
 	1 HOST:        1 MPI RANK  x 8 THREADS
 	NUMBER OF EQUATIONS:     552528
 	NUMBER OF RHS:           1
 	NUMBER OF FLOPS:         2.519e+12

     CHECK POINT  START OF SOLVER     

     CHECK POINT  END OF SOLVER       

       ELAPSED USER TIME (SEC)      =   106.61    
       ELAPSED SYSTEM TIME (SEC)    =  0.50000    
       ELAPSED TOTAL CPU TIME (SEC) =   107.11    
       ELAPSED WALLCLOCK TIME (SEC) =           13

               CONVERGENCE CHECKS FOR EQUILIBRIUM ITERATION     1


 AVERAGE FORCE                      0.151       TIME AVG. FORCE       8.779E-02
 LARGEST RESIDUAL FORCE            -5.211E-08   AT NODE       1396   DOF  2
   INSTANCE: CHD4                                                                            
 LARGEST INCREMENT OF DISP.         1.510E-05   AT NODE         15   DOF  2
   INSTANCE: CHD4                                                                            
 LARGEST CORRECTION TO DISP.        1.320E-10   AT NODE       1922   DOF  2
   INSTANCE: CHD4                                                                            
          THE FORCE     EQUILIBRIUM EQUATIONS HAVE CONVERGED

 AVERAGE HEAT FLUX                  1.600E-14   TIME AVG. HEAT FLUX   1.000E-02
 LARGEST RESIDUAL HEAT FLUX        -4.743E-21   AT NODE       3425   DOF 11
   INSTANCE: CHD4                                                                            
 LARGEST INCREMENT OF TEMP.         1.433E-02   AT NODE      14126   DOF 11
   INSTANCE: CHD4                                                                            
 LARGEST CORRECTION TO TEMP.       -1.437E-04   AT NODE      44479   DOF 11
   INSTANCE: CHD4                                                                            
          THERE IS ZERO HEAT FLUX EVERYWHERE
 

 ***WARNING: THERE IS ZERO HEAT FLUX EVERYWHERE IN THE MODEL BASED ON THE 
             DEFAULT CRITERION. PLEASE CHECK THE VALUE OF THE AVERAGE HEAT FLUX 
             DURING THE CURRENT ITERATION TO VERIFY THAT THE HEAT FLUX IS SMALL 
             ENOUGH TO BE TREATED AS ZERO. IF NOT, PLEASE USE THE SOLUTION 
             CONTROLS TO RESET THE CRITERION FOR ZERO HEAT FLUX.

 MAXIMUM NON-PRESCRIBED INCREMENT IN TEMPERATURE IS   1.433E-02

 ITERATION SUMMARY FOR THE INCREMENT:   1 TOTAL ITERATIONS, OF WHICH
   0 ARE SEVERE DISCONTINUITY ITERATIONS AND  1 ARE EQUILIBRIUM ITERATIONS.

 TIME INCREMENT COMPLETED   6.04    ,  FRACTION OF STEP COMPLETED  6.000E-02
 STEP TIME COMPLETED        36.2    ,  TOTAL TIME COMPLETED        1.836E+03


  INCREMENT     7 STARTS. ATTEMPT NUMBER  1, TIME INCREMENT   6.04    
 
	UNSYMMETRIC DIRECT SPARSE SOLVER RUNNING ON
 	1 HOST:        1 MPI RANK  x 8 THREADS
 	NUMBER OF EQUATIONS:     552528
 	NUMBER OF RHS:           1
 	NUMBER OF FLOPS:         2.519e+12

     CHECK POINT  START OF SOLVER     

     CHECK POINT  END OF SOLVER       

       ELAPSED USER TIME (SEC)      =   106.71    
       ELAPSED SYSTEM TIME (SEC)    =  0.46000    
       ELAPSED TOTAL CPU TIME (SEC) =   107.17    
       ELAPSED WALLCLOCK TIME (SEC) =           14

               CONVERGENCE CHECKS FOR EQUILIBRIUM ITERATION     1


 AVERAGE FORCE                      0.176       TIME AVG. FORCE       0.100    
 LARGEST RESIDUAL FORCE            -6.192E-08   AT NODE       1396   DOF  2
   INSTANCE: CHD4                                                                            
 LARGEST INCREMENT OF DISP.         1.510E-05   AT NODE         15   DOF  2
   INSTANCE: CHD4                                                                            
 LARGEST CORRECTION TO DISP.        1.320E-10   AT NODE       1922   DOF  2
   INSTANCE: CHD4                                                                            
          THE FORCE     EQUILIBRIUM EQUATIONS HAVE CONVERGED

 AVERAGE HEAT FLUX                  1.591E-14   TIME AVG. HEAT FLUX   1.000E-02
 LARGEST RESIDUAL HEAT FLUX        -4.715E-21   AT NODE       3425   DOF 11
   INSTANCE: CHD4                                                                            
 LARGEST INCREMENT OF TEMP.         1.429E-02   AT NODE      14126   DOF 11
   INSTANCE: CHD4                                                                            
 LARGEST CORRECTION TO TEMP.       -1.320E-04   AT NODE      16241   DOF 11
   INSTANCE: CHD4                                                                            
          THERE IS ZERO HEAT FLUX EVERYWHERE
 

 ***WARNING: THERE IS ZERO HEAT FLUX EVERYWHERE IN THE MODEL BASED ON THE 
             DEFAULT CRITERION. PLEASE CHECK THE VALUE OF THE AVERAGE HEAT FLUX 
             DURING THE CURRENT ITERATION TO VERIFY THAT THE HEAT FLUX IS SMALL 
             ENOUGH TO BE TREATED AS ZERO. IF NOT, PLEASE USE THE SOLUTION 
             CONTROLS TO RESET THE CRITERION FOR ZERO HEAT FLUX.

 MAXIMUM NON-PRESCRIBED INCREMENT IN TEMPERATURE IS   1.429E-02

 ITERATION SUMMARY FOR THE INCREMENT:   1 TOTAL ITERATIONS, OF WHICH
   0 ARE SEVERE DISCONTINUITY ITERATIONS AND  1 ARE EQUILIBRIUM ITERATIONS.

 TIME INCREMENT COMPLETED   6.04    ,  FRACTION OF STEP COMPLETED  7.000E-02
 STEP TIME COMPLETED        42.3    ,  TOTAL TIME COMPLETED        1.842E+03


  INCREMENT     8 STARTS. ATTEMPT NUMBER  1, TIME INCREMENT   6.04    
 
	UNSYMMETRIC DIRECT SPARSE SOLVER RUNNING ON
 	1 HOST:        1 MPI RANK  x 8 THREADS
 	NUMBER OF EQUATIONS:     552528
 	NUMBER OF RHS:           1
 	NUMBER OF FLOPS:         2.519e+12

     CHECK POINT  START OF SOLVER     

     CHECK POINT  END OF SOLVER       

       ELAPSED USER TIME (SEC)      =   105.13    
       ELAPSED SYSTEM TIME (SEC)    =  0.45000    
       ELAPSED TOTAL CPU TIME (SEC) =   105.58    
       ELAPSED WALLCLOCK TIME (SEC) =           13

               CONVERGENCE CHECKS FOR EQUILIBRIUM ITERATION     1


 AVERAGE FORCE                      0.202       TIME AVG. FORCE       0.113    
 LARGEST RESIDUAL FORCE            -7.172E-08   AT NODE       1396   DOF  2
   INSTANCE: CHD4                                                                            
 LARGEST INCREMENT OF DISP.         1.510E-05   AT NODE         15   DOF  2
   INSTANCE: CHD4                                                                            
 LARGEST CORRECTION TO DISP.        1.320E-10   AT NODE       1922   DOF  2
   INSTANCE: CHD4                                                                            
          THE FORCE     EQUILIBRIUM EQUATIONS HAVE CONVERGED

 AVERAGE HEAT FLUX                  1.582E-14   TIME AVG. HEAT FLUX   1.000E-02
 LARGEST RESIDUAL HEAT FLUX        -4.686E-21   AT NODE       3425   DOF 11
   INSTANCE: CHD4                                                                            
 LARGEST INCREMENT OF TEMP.         1.425E-02   AT NODE      14126   DOF 11
   INSTANCE: CHD4                                                                            
 LARGEST CORRECTION TO TEMP.       -1.228E-04   AT NODE      16241   DOF 11
   INSTANCE: CHD4                                                                            
          THERE IS ZERO HEAT FLUX EVERYWHERE
 

 ***WARNING: THERE IS ZERO HEAT FLUX EVERYWHERE IN THE MODEL BASED ON THE 
             DEFAULT CRITERION. PLEASE CHECK THE VALUE OF THE AVERAGE HEAT FLUX 
             DURING THE CURRENT ITERATION TO VERIFY THAT THE HEAT FLUX IS SMALL 
             ENOUGH TO BE TREATED AS ZERO. IF NOT, PLEASE USE THE SOLUTION 
             CONTROLS TO RESET THE CRITERION FOR ZERO HEAT FLUX.

 MAXIMUM NON-PRESCRIBED INCREMENT IN TEMPERATURE IS   1.425E-02

 ITERATION SUMMARY FOR THE INCREMENT:   1 TOTAL ITERATIONS, OF WHICH
   0 ARE SEVERE DISCONTINUITY ITERATIONS AND  1 ARE EQUILIBRIUM ITERATIONS.

 TIME INCREMENT COMPLETED   6.04    ,  FRACTION OF STEP COMPLETED  8.000E-02
 STEP TIME COMPLETED        48.3    ,  TOTAL TIME COMPLETED        1.848E+03


  INCREMENT     9 STARTS. ATTEMPT NUMBER  1, TIME INCREMENT   6.04    
 
	UNSYMMETRIC DIRECT SPARSE SOLVER RUNNING ON
 	1 HOST:        1 MPI RANK  x 8 THREADS
 	NUMBER OF EQUATIONS:     552528
 	NUMBER OF RHS:           1
 	NUMBER OF FLOPS:         2.519e+12

     CHECK POINT  START OF SOLVER     

     CHECK POINT  END OF SOLVER       

       ELAPSED USER TIME (SEC)      =   104.96    
       ELAPSED SYSTEM TIME (SEC)    =  0.48000    
       ELAPSED TOTAL CPU TIME (SEC) =   105.44    
       ELAPSED WALLCLOCK TIME (SEC) =           14

               CONVERGENCE CHECKS FOR EQUILIBRIUM ITERATION     1


 AVERAGE FORCE                      0.227       TIME AVG. FORCE       0.126    
 LARGEST RESIDUAL FORCE            -8.152E-08   AT NODE       1396   DOF  2
   INSTANCE: CHD4                                                                            
 LARGEST INCREMENT OF DISP.         1.510E-05   AT NODE         15   DOF  2
   INSTANCE: CHD4                                                                            
 LARGEST CORRECTION TO DISP.        1.320E-10   AT NODE       1922   DOF  2
   INSTANCE: CHD4                                                                            
          THE FORCE     EQUILIBRIUM EQUATIONS HAVE CONVERGED

 AVERAGE HEAT FLUX                  1.573E-14   TIME AVG. HEAT FLUX   1.000E-02
 LARGEST RESIDUAL HEAT FLUX        -4.658E-21   AT NODE       3425   DOF 11
   INSTANCE: CHD4                                                                            
 LARGEST INCREMENT OF TEMP.         1.419E-02   AT NODE      14126   DOF 11
   INSTANCE: CHD4                                                                            
 LARGEST CORRECTION TO TEMP.       -1.166E-04   AT NODE      16384   DOF 11
   INSTANCE: CHD4                                                                            
          THERE IS ZERO HEAT FLUX EVERYWHERE
 

 ***WARNING: THERE IS ZERO HEAT FLUX EVERYWHERE IN THE MODEL BASED ON THE 
             DEFAULT CRITERION. PLEASE CHECK THE VALUE OF THE AVERAGE HEAT FLUX 
             DURING THE CURRENT ITERATION TO VERIFY THAT THE HEAT FLUX IS SMALL 
             ENOUGH TO BE TREATED AS ZERO. IF NOT, PLEASE USE THE SOLUTION 
             CONTROLS TO RESET THE CRITERION FOR ZERO HEAT FLUX.

 MAXIMUM NON-PRESCRIBED INCREMENT IN TEMPERATURE IS   1.419E-02

 ITERATION SUMMARY FOR THE INCREMENT:   1 TOTAL ITERATIONS, OF WHICH
   0 ARE SEVERE DISCONTINUITY ITERATIONS AND  1 ARE EQUILIBRIUM ITERATIONS.

 TIME INCREMENT COMPLETED   6.04    ,  FRACTION OF STEP COMPLETED  9.000E-02
 STEP TIME COMPLETED        54.4    ,  TOTAL TIME COMPLETED        1.854E+03


  INCREMENT    10 STARTS. ATTEMPT NUMBER  1, TIME INCREMENT   6.04    
 
	UNSYMMETRIC DIRECT SPARSE SOLVER RUNNING ON
 	1 HOST:        1 MPI RANK  x 8 THREADS
 	NUMBER OF EQUATIONS:     552528
 	NUMBER OF RHS:           1
 	NUMBER OF FLOPS:         2.519e+12

     CHECK POINT  START OF SOLVER     

     CHECK POINT  END OF SOLVER       

       ELAPSED USER TIME (SEC)      =   105.25    
       ELAPSED SYSTEM TIME (SEC)    =  0.49000    
       ELAPSED TOTAL CPU TIME (SEC) =   105.74    
       ELAPSED WALLCLOCK TIME (SEC) =           14

               CONVERGENCE CHECKS FOR EQUILIBRIUM ITERATION     1


 AVERAGE FORCE                      0.252       TIME AVG. FORCE       0.138    
 LARGEST RESIDUAL FORCE            -9.131E-08   AT NODE       1396   DOF  2
   INSTANCE: CHD4                                                                            
 LARGEST INCREMENT OF DISP.         1.510E-05   AT NODE         15   DOF  2
   INSTANCE: CHD4                                                                            
 LARGEST CORRECTION TO DISP.        1.320E-10   AT NODE       1922   DOF  2
   INSTANCE: CHD4                                                                            
          THE FORCE     EQUILIBRIUM EQUATIONS HAVE CONVERGED

 AVERAGE HEAT FLUX                  1.564E-14   TIME AVG. HEAT FLUX   1.000E-02
 LARGEST RESIDUAL HEAT FLUX        -4.630E-21   AT NODE       3425   DOF 11
   INSTANCE: CHD4                                                                            
 LARGEST INCREMENT OF TEMP.         1.414E-02   AT NODE      14126   DOF 11
   INSTANCE: CHD4                                                                            
 LARGEST CORRECTION TO TEMP.       -1.120E-04   AT NODE      16384   DOF 11
   INSTANCE: CHD4                                                                            
          THERE IS ZERO HEAT FLUX EVERYWHERE
 

 ***WARNING: THERE IS ZERO HEAT FLUX EVERYWHERE IN THE MODEL BASED ON THE 
             DEFAULT CRITERION. PLEASE CHECK THE VALUE OF THE AVERAGE HEAT FLUX 
             DURING THE CURRENT ITERATION TO VERIFY THAT THE HEAT FLUX IS SMALL 
             ENOUGH TO BE TREATED AS ZERO. IF NOT, PLEASE USE THE SOLUTION 
             CONTROLS TO RESET THE CRITERION FOR ZERO HEAT FLUX.

 MAXIMUM NON-PRESCRIBED INCREMENT IN TEMPERATURE IS   1.414E-02

 ITERATION SUMMARY FOR THE INCREMENT:   1 TOTAL ITERATIONS, OF WHICH
   0 ARE SEVERE DISCONTINUITY ITERATIONS AND  1 ARE EQUILIBRIUM ITERATIONS.

 TIME INCREMENT COMPLETED   6.04    ,  FRACTION OF STEP COMPLETED  0.100    
 STEP TIME COMPLETED        60.4    ,  TOTAL TIME COMPLETED        1.860E+03


  INCREMENT    11 STARTS. ATTEMPT NUMBER  1, TIME INCREMENT   6.04    
 
	UNSYMMETRIC DIRECT SPARSE SOLVER RUNNING ON
 	1 HOST:        1 MPI RANK  x 8 THREADS
 	NUMBER OF EQUATIONS:     552528
 	NUMBER OF RHS:           1
 	NUMBER OF FLOPS:         2.519e+12

     CHECK POINT  START OF SOLVER     

     CHECK POINT  END OF SOLVER       

       ELAPSED USER TIME (SEC)      =   105.64    
       ELAPSED SYSTEM TIME (SEC)    =  0.48000    
       ELAPSED TOTAL CPU TIME (SEC) =   106.12    
       ELAPSED WALLCLOCK TIME (SEC) =           13

               CONVERGENCE CHECKS FOR EQUILIBRIUM ITERATION     1


 AVERAGE FORCE                      0.277       TIME AVG. FORCE       0.151    
 LARGEST RESIDUAL FORCE            -1.011E-07   AT NODE       1396   DOF  2
   INSTANCE: CHD4                                                                            
 LARGEST INCREMENT OF DISP.         1.510E-05   AT NODE         15   DOF  2
   INSTANCE: CHD4                                                                            
 LARGEST CORRECTION TO DISP.        1.320E-10   AT NODE       1922   DOF  2
   INSTANCE: CHD4                                                                            
          THE FORCE     EQUILIBRIUM EQUATIONS HAVE CONVERGED

 AVERAGE HEAT FLUX                  1.556E-14   TIME AVG. HEAT FLUX   1.000E-02
 LARGEST RESIDUAL HEAT FLUX        -4.601E-21   AT NODE       3425   DOF 11
   INSTANCE: CHD4                                                                            
 LARGEST INCREMENT OF TEMP.         1.408E-02   AT NODE      14126   DOF 11
   INSTANCE: CHD4                                                                            
 LARGEST CORRECTION TO TEMP.       -1.079E-04   AT NODE      16384   DOF 11
   INSTANCE: CHD4                                                                            
          THERE IS ZERO HEAT FLUX EVERYWHERE
 

 ***WARNING: THERE IS ZERO HEAT FLUX EVERYWHERE IN THE MODEL BASED ON THE 
             DEFAULT CRITERION. PLEASE CHECK THE VALUE OF THE AVERAGE HEAT FLUX 
             DURING THE CURRENT ITERATION TO VERIFY THAT THE HEAT FLUX IS SMALL 
             ENOUGH TO BE TREATED AS ZERO. IF NOT, PLEASE USE THE SOLUTION 
             CONTROLS TO RESET THE CRITERION FOR ZERO HEAT FLUX.

 MAXIMUM NON-PRESCRIBED INCREMENT IN TEMPERATURE IS   1.408E-02

 ITERATION SUMMARY FOR THE INCREMENT:   1 TOTAL ITERATIONS, OF WHICH
   0 ARE SEVERE DISCONTINUITY ITERATIONS AND  1 ARE EQUILIBRIUM ITERATIONS.

 TIME INCREMENT COMPLETED   6.04    ,  FRACTION OF STEP COMPLETED  0.110    
 STEP TIME COMPLETED        66.4    ,  TOTAL TIME COMPLETED        1.866E+03


  INCREMENT    12 STARTS. ATTEMPT NUMBER  1, TIME INCREMENT   6.04    
 
	UNSYMMETRIC DIRECT SPARSE SOLVER RUNNING ON
 	1 HOST:        1 MPI RANK  x 8 THREADS
 	NUMBER OF EQUATIONS:     552528
 	NUMBER OF RHS:           1
 	NUMBER OF FLOPS:         2.519e+12

     CHECK POINT  START OF SOLVER     

     CHECK POINT  END OF SOLVER       

       ELAPSED USER TIME (SEC)      =   104.35    
       ELAPSED SYSTEM TIME (SEC)    =  0.45000    
       ELAPSED TOTAL CPU TIME (SEC) =   104.80    
       ELAPSED WALLCLOCK TIME (SEC) =           13

               CONVERGENCE CHECKS FOR EQUILIBRIUM ITERATION     1


 AVERAGE FORCE                      0.302       TIME AVG. FORCE       0.164    
 LARGEST RESIDUAL FORCE            -1.109E-07   AT NODE       1396   DOF  2
   INSTANCE: CHD4                                                                            
 LARGEST INCREMENT OF DISP.         1.510E-05   AT NODE         15   DOF  2
   INSTANCE: CHD4                                                                            
 LARGEST CORRECTION TO DISP.        1.320E-10   AT NODE       1922   DOF  2
   INSTANCE: CHD4                                                                            
          THE FORCE     EQUILIBRIUM EQUATIONS HAVE CONVERGED

 AVERAGE HEAT FLUX                  1.547E-14   TIME AVG. HEAT FLUX   1.000E-02
 LARGEST RESIDUAL HEAT FLUX        -4.573E-21   AT NODE       3425   DOF 11
   INSTANCE: CHD4                                                                            
 LARGEST INCREMENT OF TEMP.         1.402E-02   AT NODE      14126   DOF 11
   INSTANCE: CHD4                                                                            
[...]
             DURING THE CURRENT ITERATION TO VERIFY THAT THE HEAT FLUX IS SMALL 
             ENOUGH TO BE TREATED AS ZERO. IF NOT, PLEASE USE THE SOLUTION 
             CONTROLS TO RESET THE CRITERION FOR ZERO HEAT FLUX.
 
	UNSYMMETRIC DIRECT SPARSE SOLVER RUNNING ON
 	1 HOST:        1 MPI RANK  x 8 THREADS
 	NUMBER OF EQUATIONS:     552528
 	NUMBER OF RHS:           1
 	NUMBER OF FLOPS:         2.519e+12

     CHECK POINT  START OF SOLVER     

     CHECK POINT  END OF SOLVER       

       ELAPSED USER TIME (SEC)      =   97.360    
       ELAPSED SYSTEM TIME (SEC)    =  0.34000    
       ELAPSED TOTAL CPU TIME (SEC) =   97.700    
       ELAPSED WALLCLOCK TIME (SEC) =           13

               CONVERGENCE CHECKS FOR EQUILIBRIUM ITERATION     2


 AVERAGE FORCE                       1.10       TIME AVG. FORCE       0.914    
 LARGEST RESIDUAL FORCE             3.373E-02   AT NODE     135387   DOF  2
   INSTANCE: CHD4                                                                            
 LARGEST INCREMENT OF DISP.         1.921E-05   AT NODE      14522   DOF  2
   INSTANCE: CHD4                                                                            
 LARGEST CORRECTION TO DISP.       -4.229E-07   AT NODE      68556   DOF  2
   INSTANCE: CHD4                                                                            
          FORCE     EQUILIBRIUM NOT ACHIEVED WITHIN TOLERANCE.

 AVERAGE HEAT FLUX                  9.566E-15   TIME AVG. HEAT FLUX   1.000E-02
 LARGEST RESIDUAL HEAT FLUX        -6.529E-16   AT NODE     116109   DOF 11
   INSTANCE: CHD4                                                                            
 LARGEST INCREMENT OF TEMP.         0.153       AT NODE      66895   DOF 11
   INSTANCE: CHD4                                                                            
 LARGEST CORRECTION TO TEMP.        1.301E-02   AT NODE     103536   DOF 11
   INSTANCE: CHD4                                                                            
          THERE IS ZERO HEAT FLUX EVERYWHERE
 

 ***WARNING: THERE IS ZERO HEAT FLUX EVERYWHERE IN THE MODEL BASED ON THE 
             DEFAULT CRITERION. PLEASE CHECK THE VALUE OF THE AVERAGE HEAT FLUX 
             DURING THE CURRENT ITERATION TO VERIFY THAT THE HEAT FLUX IS SMALL 
             ENOUGH TO BE TREATED AS ZERO. IF NOT, PLEASE USE THE SOLUTION 
             CONTROLS TO RESET THE CRITERION FOR ZERO HEAT FLUX.
 
	UNSYMMETRIC DIRECT SPARSE SOLVER RUNNING ON
 	1 HOST:        1 MPI RANK  x 8 THREADS
 	NUMBER OF EQUATIONS:     552528
 	NUMBER OF RHS:           1
 	NUMBER OF FLOPS:         2.519e+12

     CHECK POINT  START OF SOLVER     

     CHECK POINT  END OF SOLVER       

       ELAPSED USER TIME (SEC)      =   97.230    
       ELAPSED SYSTEM TIME (SEC)    =  0.37000    
       ELAPSED TOTAL CPU TIME (SEC) =   97.600    
       ELAPSED WALLCLOCK TIME (SEC) =           13

               CONVERGENCE CHECKS FOR EQUILIBRIUM ITERATION     3


 AVERAGE FORCE                       1.10       TIME AVG. FORCE       0.914    
 LARGEST RESIDUAL FORCE             9.969E-03   AT NODE      75499   DOF  2
   INSTANCE: CHD4                                                                            
 LARGEST INCREMENT OF DISP.         1.921E-05   AT NODE     106306   DOF  2
   INSTANCE: CHD4                                                                            
 LARGEST CORRECTION TO DISP.       -7.731E-08   AT NODE      87171   DOF  2
   INSTANCE: CHD4                                                                            
          FORCE     EQUILIBRIUM NOT ACHIEVED WITHIN TOLERANCE.

 AVERAGE HEAT FLUX                  9.566E-15   TIME AVG. HEAT FLUX   1.000E-02
 LARGEST RESIDUAL HEAT FLUX        -4.405E-16   AT NODE     108424   DOF 11
   INSTANCE: CHD4                                                                            
 LARGEST INCREMENT OF TEMP.         0.153       AT NODE      66895   DOF 11
   INSTANCE: CHD4                                                                            
 LARGEST CORRECTION TO TEMP.       -9.577E-03   AT NODE     116109   DOF 11
   INSTANCE: CHD4                                                                            
          THERE IS ZERO HEAT FLUX EVERYWHERE
 

 ***WARNING: THERE IS ZERO HEAT FLUX EVERYWHERE IN THE MODEL BASED ON THE 
             DEFAULT CRITERION. PLEASE CHECK THE VALUE OF THE AVERAGE HEAT FLUX 
             DURING THE CURRENT ITERATION TO VERIFY THAT THE HEAT FLUX IS SMALL 
             ENOUGH TO BE TREATED AS ZERO. IF NOT, PLEASE USE THE SOLUTION 
             CONTROLS TO RESET THE CRITERION FOR ZERO HEAT FLUX.
 
	UNSYMMETRIC DIRECT SPARSE SOLVER RUNNING ON
 	1 HOST:        1 MPI RANK  x 8 THREADS
 	NUMBER OF EQUATIONS:     552528
 	NUMBER OF RHS:           1
 	NUMBER OF FLOPS:         2.519e+12

     CHECK POINT  START OF SOLVER     

     CHECK POINT  END OF SOLVER       

       ELAPSED USER TIME (SEC)      =   97.640    
       ELAPSED SYSTEM TIME (SEC)    =  0.35000    
       ELAPSED TOTAL CPU TIME (SEC) =   97.990    
       ELAPSED WALLCLOCK TIME (SEC) =           13

               CONVERGENCE CHECKS FOR EQUILIBRIUM ITERATION     4


 AVERAGE FORCE                       1.10       TIME AVG. FORCE       0.914    
 LARGEST RESIDUAL FORCE             2.685E-03   AT NODE      77081   DOF  2
   INSTANCE: CHD4                                                                            
 LARGEST INCREMENT OF DISP.         1.921E-05   AT NODE     106306   DOF  2
   INSTANCE: CHD4                                                                            
 LARGEST CORRECTION TO DISP.       -1.414E-08   AT NODE      87171   DOF  2
   INSTANCE: CHD4                                                                            
          THE FORCE     EQUILIBRIUM EQUATIONS HAVE CONVERGED

 AVERAGE HEAT FLUX                  9.566E-15   TIME AVG. HEAT FLUX   1.000E-02
 LARGEST RESIDUAL HEAT FLUX        -3.297E-16   AT NODE      99139   DOF 11
   INSTANCE: CHD4                                                                            
 LARGEST INCREMENT OF TEMP.         0.153       AT NODE      66895   DOF 11
   INSTANCE: CHD4                                                                            
 LARGEST CORRECTION TO TEMP.       -6.609E-03   AT NODE     108424   DOF 11
   INSTANCE: CHD4                                                                            
          THERE IS ZERO HEAT FLUX EVERYWHERE
 

 ***WARNING: THERE IS ZERO HEAT FLUX EVERYWHERE IN THE MODEL BASED ON THE 
             DEFAULT CRITERION. PLEASE CHECK THE VALUE OF THE AVERAGE HEAT FLUX 
             DURING THE CURRENT ITERATION TO VERIFY THAT THE HEAT FLUX IS SMALL 
             ENOUGH TO BE TREATED AS ZERO. IF NOT, PLEASE USE THE SOLUTION 
             CONTROLS TO RESET THE CRITERION FOR ZERO HEAT FLUX.

 MAXIMUM NON-PRESCRIBED INCREMENT IN TEMPERATURE IS   0.153    

 ITERATION SUMMARY FOR THE INCREMENT:   4 TOTAL ITERATIONS, OF WHICH
   0 ARE SEVERE DISCONTINUITY ITERATIONS AND  4 ARE EQUILIBRIUM ITERATIONS.

 TIME INCREMENT COMPLETED   6.04    ,  FRACTION OF STEP COMPLETED  0.990    
 STEP TIME COMPLETED        598.    ,  TOTAL TIME COMPLETED        2.398E+03


  INCREMENT   103 STARTS. ATTEMPT NUMBER  1, TIME INCREMENT   6.04    
 
	UNSYMMETRIC DIRECT SPARSE SOLVER RUNNING ON
 	1 HOST:        1 MPI RANK  x 8 THREADS
 	NUMBER OF EQUATIONS:     552528
 	NUMBER OF RHS:           1
 	NUMBER OF FLOPS:         2.519e+12

     CHECK POINT  START OF SOLVER     

     CHECK POINT  END OF SOLVER       

       ELAPSED USER TIME (SEC)      =   97.040    
       ELAPSED SYSTEM TIME (SEC)    =  0.38000    
       ELAPSED TOTAL CPU TIME (SEC) =   97.420    
       ELAPSED WALLCLOCK TIME (SEC) =           12

               CONVERGENCE CHECKS FOR EQUILIBRIUM ITERATION     1


 AVERAGE FORCE                       1.09       TIME AVG. FORCE       0.916    
 LARGEST RESIDUAL FORCE             0.258       AT NODE      79673   DOF  2
   INSTANCE: CHD4                                                                            
 LARGEST INCREMENT OF DISP.         1.977E-05   AT NODE      14522   DOF  2
   INSTANCE: CHD4                                                                            
 LARGEST CORRECTION TO DISP.        2.234E-06   AT NODE      87180   DOF  2
   INSTANCE: CHD4                                                                            
          FORCE     EQUILIBRIUM NOT ACHIEVED WITHIN TOLERANCE.

 AVERAGE HEAT FLUX                  9.515E-15   TIME AVG. HEAT FLUX   1.000E-02
 LARGEST RESIDUAL HEAT FLUX        -2.829E-15   AT NODE      28324   DOF 11
   INSTANCE: CHD4                                                                            
 LARGEST INCREMENT OF TEMP.        -0.156       AT NODE     127826   DOF 11
   INSTANCE: CHD4                                                                            
 LARGEST CORRECTION TO TEMP.        6.947E-02   AT NODE     108328   DOF 11
   INSTANCE: CHD4                                                                            
          THERE IS ZERO HEAT FLUX EVERYWHERE
 

 ***WARNING: THERE IS ZERO HEAT FLUX EVERYWHERE IN THE MODEL BASED ON THE 
             DEFAULT CRITERION. PLEASE CHECK THE VALUE OF THE AVERAGE HEAT FLUX 
             DURING THE CURRENT ITERATION TO VERIFY THAT THE HEAT FLUX IS SMALL 
             ENOUGH TO BE TREATED AS ZERO. IF NOT, PLEASE USE THE SOLUTION 
             CONTROLS TO RESET THE CRITERION FOR ZERO HEAT FLUX.
 
	UNSYMMETRIC DIRECT SPARSE SOLVER RUNNING ON
 	1 HOST:        1 MPI RANK  x 8 THREADS
 	NUMBER OF EQUATIONS:     552528
 	NUMBER OF RHS:           1
 	NUMBER OF FLOPS:         2.519e+12

     CHECK POINT  START OF SOLVER     

     CHECK POINT  END OF SOLVER       

       ELAPSED USER TIME (SEC)      =   97.430    
       ELAPSED SYSTEM TIME (SEC)    =  0.34000    
       ELAPSED TOTAL CPU TIME (SEC) =   97.770    
       ELAPSED WALLCLOCK TIME (SEC) =           12

               CONVERGENCE CHECKS FOR EQUILIBRIUM ITERATION     2


 AVERAGE FORCE                       1.09       TIME AVG. FORCE       0.916    
 LARGEST RESIDUAL FORCE            -6.507E-02   AT NODE      68372   DOF  3
   INSTANCE: CHD4                                                                            
 LARGEST INCREMENT OF DISP.         1.955E-05   AT NODE      14522   DOF  2
   INSTANCE: CHD4                                                                            
 LARGEST CORRECTION TO DISP.       -4.651E-07   AT NODE      66528   DOF  2
   INSTANCE: CHD4                                                                            
          FORCE     EQUILIBRIUM NOT ACHIEVED WITHIN TOLERANCE.

 AVERAGE HEAT FLUX                  9.515E-15   TIME AVG. HEAT FLUX   1.000E-02
 LARGEST RESIDUAL HEAT FLUX        -9.301E-16   AT NODE     119089   DOF 11
   INSTANCE: CHD4                                                                            
 LARGEST INCREMENT OF TEMP.        -0.156       AT NODE     127826   DOF 11
   INSTANCE: CHD4                                                                            
 LARGEST CORRECTION TO TEMP.        1.302E-02   AT NODE      87654   DOF 11
   INSTANCE: CHD4                                                                            
          THERE IS ZERO HEAT FLUX EVERYWHERE
 

 ***WARNING: THERE IS ZERO HEAT FLUX EVERYWHERE IN THE MODEL BASED ON THE 
             DEFAULT CRITERION. PLEASE CHECK THE VALUE OF THE AVERAGE HEAT FLUX 
             DURING THE CURRENT ITERATION TO VERIFY THAT THE HEAT FLUX IS SMALL 
             ENOUGH TO BE TREATED AS ZERO. IF NOT, PLEASE USE THE SOLUTION 
             CONTROLS TO RESET THE CRITERION FOR ZERO HEAT FLUX.
 
	UNSYMMETRIC DIRECT SPARSE SOLVER RUNNING ON
 	1 HOST:        1 MPI RANK  x 8 THREADS
 	NUMBER OF EQUATIONS:     552528
 	NUMBER OF RHS:           1
 	NUMBER OF FLOPS:         2.519e+12

     CHECK POINT  START OF SOLVER     

     CHECK POINT  END OF SOLVER       

       ELAPSED USER TIME (SEC)      =   97.460    
       ELAPSED SYSTEM TIME (SEC)    =  0.35000    
       ELAPSED TOTAL CPU TIME (SEC) =   97.810    
       ELAPSED WALLCLOCK TIME (SEC) =           12

               CONVERGENCE CHECKS FOR EQUILIBRIUM ITERATION     3


 AVERAGE FORCE                       1.09       TIME AVG. FORCE       0.916    
 LARGEST RESIDUAL FORCE            -2.133E-02   AT NODE      81487   DOF  1
   INSTANCE: CHD4                                                                            
 LARGEST INCREMENT OF DISP.         1.954E-05   AT NODE      14522   DOF  2
   INSTANCE: CHD4                                                                            
 LARGEST CORRECTION TO DISP.       -1.159E-07   AT NODE      87169   DOF  2
   INSTANCE: CHD4                                                                            
          FORCE     EQUILIBRIUM NOT ACHIEVED WITHIN TOLERANCE.

 AVERAGE HEAT FLUX                  9.515E-15   TIME AVG. HEAT FLUX   1.000E-02
 LARGEST RESIDUAL HEAT FLUX        -5.355E-16   AT NODE     106791   DOF 11
   INSTANCE: CHD4                                                                            
 LARGEST INCREMENT OF TEMP.        -0.156       AT NODE     127826   DOF 11
   INSTANCE: CHD4                                                                            
 LARGEST CORRECTION TO TEMP.       -1.489E-02   AT NODE     102121   DOF 11
   INSTANCE: CHD4                                                                            
          THERE IS ZERO HEAT FLUX EVERYWHERE
 

 ***WARNING: THERE IS ZERO HEAT FLUX EVERYWHERE IN THE MODEL BASED ON THE 
             DEFAULT CRITERION. PLEASE CHECK THE VALUE OF THE AVERAGE HEAT FLUX 
             DURING THE CURRENT ITERATION TO VERIFY THAT THE HEAT FLUX IS SMALL 
             ENOUGH TO BE TREATED AS ZERO. IF NOT, PLEASE USE THE SOLUTION 
             CONTROLS TO RESET THE CRITERION FOR ZERO HEAT FLUX.
 
	UNSYMMETRIC DIRECT SPARSE SOLVER RUNNING ON
 	1 HOST:        1 MPI RANK  x 8 THREADS
 	NUMBER OF EQUATIONS:     552528
 	NUMBER OF RHS:           1
 	NUMBER OF FLOPS:         2.519e+12

     CHECK POINT  START OF SOLVER     

     CHECK POINT  END OF SOLVER       

       ELAPSED USER TIME (SEC)      =   97.270    
       ELAPSED SYSTEM TIME (SEC)    =  0.36000    
       ELAPSED TOTAL CPU TIME (SEC) =   97.630    
       ELAPSED WALLCLOCK TIME (SEC) =           12

               CONVERGENCE CHECKS FOR EQUILIBRIUM ITERATION     4


 AVERAGE FORCE                       1.09       TIME AVG. FORCE       0.916    
 LARGEST RESIDUAL FORCE            -6.211E-03   AT NODE      80246   DOF  2
   INSTANCE: CHD4                                                                            
 LARGEST INCREMENT OF DISP.         1.954E-05   AT NODE      14522   DOF  2
   INSTANCE: CHD4                                                                            
 LARGEST CORRECTION TO DISP.       -3.257E-08   AT NODE      87171   DOF  2
   INSTANCE: CHD4                                                                            
          FORCE     EQUILIBRIUM NOT ACHIEVED WITHIN TOLERANCE.

 AVERAGE HEAT FLUX                  9.515E-15   TIME AVG. HEAT FLUX   1.000E-02
 LARGEST RESIDUAL HEAT FLUX        -3.932E-16   AT NODE      91089   DOF 11
   INSTANCE: CHD4                                                                            
 LARGEST INCREMENT OF TEMP.        -0.156       AT NODE     127826   DOF 11
   INSTANCE: CHD4                                                                            
 LARGEST CORRECTION TO TEMP.       -7.662E-03   AT NODE     106791   DOF 11
   INSTANCE: CHD4                                                                            
          THERE IS ZERO HEAT FLUX EVERYWHERE
 

 ***WARNING: THERE IS ZERO HEAT FLUX EVERYWHERE IN THE MODEL BASED ON THE 
             DEFAULT CRITERION. PLEASE CHECK THE VALUE OF THE AVERAGE HEAT FLUX 
             DURING THE CURRENT ITERATION TO VERIFY THAT THE HEAT FLUX IS SMALL 
             ENOUGH TO BE TREATED AS ZERO. IF NOT, PLEASE USE THE SOLUTION 
             CONTROLS TO RESET THE CRITERION FOR ZERO HEAT FLUX.
 
	UNSYMMETRIC DIRECT SPARSE SOLVER RUNNING ON
 	1 HOST:        1 MPI RANK  x 8 THREADS
 	NUMBER OF EQUATIONS:     552528
 	NUMBER OF RHS:           1
 	NUMBER OF FLOPS:         2.519e+12

     CHECK POINT  START OF SOLVER     

     CHECK POINT  END OF SOLVER       

       ELAPSED USER TIME (SEC)      =   97.420    
       ELAPSED SYSTEM TIME (SEC)    =  0.39000    
       ELAPSED TOTAL CPU TIME (SEC) =   97.810    
       ELAPSED WALLCLOCK TIME (SEC) =           12

               CONVERGENCE CHECKS FOR EQUILIBRIUM ITERATION     5


 AVERAGE FORCE                       1.09       TIME AVG. FORCE       0.916    
 LARGEST RESIDUAL FORCE             1.109E-03   AT NODE      81495   DOF  2
   INSTANCE: CHD4                                                                            
 LARGEST INCREMENT OF DISP.         1.954E-05   AT NODE      14522   DOF  2
   INSTANCE: CHD4                                                                            
 LARGEST CORRECTION TO DISP.       -4.081E-09   AT NODE      87171   DOF  2
   INSTANCE: CHD4                                                                            
          THE FORCE     EQUILIBRIUM EQUATIONS HAVE CONVERGED

 AVERAGE HEAT FLUX                  9.515E-15   TIME AVG. HEAT FLUX   1.000E-02
 LARGEST RESIDUAL HEAT FLUX        -4.360E-18   AT NODE      48612   DOF 11
   INSTANCE: CHD4                                                                            
 LARGEST INCREMENT OF TEMP.        -0.156       AT NODE     127826   DOF 11
   INSTANCE: CHD4                                                                            
 LARGEST CORRECTION TO TEMP.       -5.677E-03   AT NODE      91089   DOF 11
   INSTANCE: CHD4                                                                            
          THERE IS ZERO HEAT FLUX EVERYWHERE
 

 ***WARNING: THERE IS ZERO HEAT FLUX EVERYWHERE IN THE MODEL BASED ON THE 
             DEFAULT CRITERION. PLEASE CHECK THE VALUE OF THE AVERAGE HEAT FLUX 
             DURING THE CURRENT ITERATION TO VERIFY THAT THE HEAT FLUX IS SMALL 
             ENOUGH TO BE TREATED AS ZERO. IF NOT, PLEASE USE THE SOLUTION 
             CONTROLS TO RESET THE CRITERION FOR ZERO HEAT FLUX.

 MAXIMUM NON-PRESCRIBED INCREMENT IN TEMPERATURE IS  -0.156    

 ITERATION SUMMARY FOR THE INCREMENT:   5 TOTAL ITERATIONS, OF WHICH
   0 ARE SEVERE DISCONTINUITY ITERATIONS AND  5 ARE EQUILIBRIUM ITERATIONS.

 TIME INCREMENT COMPLETED   6.04    ,  FRACTION OF STEP COMPLETED   1.00    
 STEP TIME COMPLETED        604.    ,  TOTAL TIME COMPLETED        2.404E+03


          THE ANALYSIS HAS BEEN COMPLETED



     ANALYSIS SUMMARY:
     TOTAL OF        108  INCREMENTS
                       0  CUTBACKS IN AUTOMATIC INCREMENTATION
                     235  ITERATIONS INCLUDING CONTACT ITERATIONS IF PRESENT
                     235  PASSES THROUGH THE EQUATION SOLVER OF WHICH 
                     235  INVOLVE MATRIX DECOMPOSITION, INCLUDING
                       0  DECOMPOSITION(S) OF THE MASS MATRIX
                       1  REORDERING OF EQUATIONS TO MINIMIZE WAVEFRONT
                       0  ADDITIONAL RESIDUAL EVALUATIONS FOR LINE SEARCHES
                       0  ADDITIONAL OPERATOR EVALUATIONS FOR LINE SEARCHES
                       6  WARNING MESSAGES DURING USER INPUT PROCESSING
                25685522  WARNING MESSAGES DURING ANALYSIS
                25685287  ANALYSIS WARNINGS ARE NUMERICAL PROBLEM MESSAGES
                       0  ANALYSIS WARNINGS ARE NEGATIVE EIGENVALUE MESSAGES
                       0  ERROR MESSAGES



     JOB TIME SUMMARY
       USER TIME (SEC)      =     3.39E+04
       SYSTEM TIME (SEC)    =     5.74E+02
       TOTAL CPU TIME (SEC) =     3.45E+04
       WALLCLOCK TIME (SEC) =         5390
       MEMORY PEAK (GB)     =           16
