 Abaqus/Standard 2023                  DATE 08-Dec-2024 TIME 19:28:47
 SUMMARY OF JOB INFORMATION:
 STEP  INC ATT SEVERE EQUIL TOTAL  TOTAL      STEP       INC OF       DOF    IF
               DISCON ITERS ITERS  TIME/    TIME/LPF    TIME/LPF    MONITOR RIKS
               ITERS               FREQ
   1     1   1     0     1     1  360.       360.       360.0     
   1     2   1     0     1     1  720.       720.       360.0     
   1     3   1     0     1     1  1.08e+03   1.08e+03   360.0     
   1     4   1     0     1     1  1.44e+03   1.44e+03   360.0     
   1     5   1     0     1     1  1.80e+03   1.80e+03   360.0     
   2     1   1     0     2     2  1.81e+03   6.04       6.040     
   2     2   1     0     1     1  1.81e+03   12.1       6.040     
   2     3   1     0     1     1  1.82e+03   18.1       6.040     
   2     4   1     0     1     1  1.82e+03   24.2       6.040     
   2     5   1     0     1     1  1.83e+03   30.2       6.040     
   2     6   1     0     1     1  1.84e+03   36.2       6.040     
   2     7   1     0     1     1  1.84e+03   42.3       6.040     
   2     8   1     0     1     1  1.85e+03   48.3       6.040     
   2     9   1     0     1     1  1.85e+03   54.4       6.040     
   2    10   1     0     1     1  1.86e+03   60.4       6.040     
   2    11   1     0     1     1  1.87e+03   66.4       6.040     
   2    12   1     0     1     1  1.87e+03   72.5       6.040     
   2    13   1     0     1     1  1.88e+03   78.5       6.040     
   2    14   1     0     1     1  1.88e+03   84.6       6.040     
   2    15   1     0     1     1  1.89e+03   90.6       6.040     
   2    16   1     0     1     1  1.90e+03   96.6       6.040     
   2    17   1     0     1     1  1.90e+03   103.       6.040     
   2    18   1     0     1     1  1.91e+03   109.       6.040     
   2    19   1     0     1     1  1.91e+03   115.       6.040     
   2    20   1     0     2     2  1.92e+03   121.       6.040     
   2    21   1     0     2     2  1.93e+03   127.       6.040     
   2    22   1     0     2     2  1.93e+03   133.       6.040     
   2    23   1     0     2     2  1.94e+03   139.       6.040     
   2    24   1     0     2     2  1.94e+03   145.       6.040     
   2    25   1     0     2     2  1.95e+03   151.       6.040     
   2    26   1     0     2     2  1.96e+03   157.       6.040     
   2    27   1     0     2     2  1.96e+03   163.       6.040     
   2    28   1     0     2     2  1.97e+03   169.       6.040     
   2    29   1     0     2     2  1.98e+03   175.       6.040     
   2    30   1     0     2     2  1.98e+03   181.       6.040     
   2    31   1     0     2     2  1.99e+03   187.       6.040     
   2    32   1     0     2     2  1.99e+03   193.       6.040     
   2    33   1     0     2     2  2.00e+03   199.       6.040     
   2    34   1     0     2     2  2.01e+03   205.       6.040     
   2    35   1     0     2     2  2.01e+03   211.       6.040     
   2    36   1     0     2     2  2.02e+03   217.       6.040     
   2    37   1     0     2     2  2.02e+03   223.       6.040     
   2    38   1     0     2     2  2.03e+03   230.       6.040     
   2    39   1     0     2     2  2.04e+03   236.       6.040     
   2    40   1     0     2     2  2.04e+03   242.       6.040     
   2    41   1     0     2     2  2.05e+03   248.       6.040     
   2    42   1     0     2     2  2.05e+03   254.       6.040     
   2    43   1     0     2     2  2.06e+03   260.       6.040     
   2    44   1     0     2     2  2.07e+03   266.       6.040     
   2    45   1     0     3     3  2.07e+03   272.       6.040     
   2    46   1     0     3     3  2.08e+03   278.       6.040     
   2    47   1     0     3     3  2.08e+03   284.       6.040     
   2    48   1     0     3     3  2.09e+03   290.       6.040     
   2    49   1     0     3     3  2.10e+03   296.       6.040     
   2    50   1     0     3     3  2.10e+03   302.       6.040     
   2    51   1     0     3     3  2.11e+03   308.       6.040     
   2    52   1     0     2     2  2.11e+03   314.       6.040     
   2    53   1     0     2     2  2.12e+03   320.       6.040     
   2    54   1     0     2     2  2.13e+03   326.       6.040     
   2    55   1     0     2     2  2.13e+03   332.       6.040     
   2    56   1     0     2     2  2.13e+03   334.       1.800     
   2    57   1     0     2     2  2.14e+03   338.       4.240     
   2    58   1     0     2     2  2.14e+03   344.       6.040     
   2    59   1     0     2     2  2.15e+03   350.       6.040     
   2    60   1     0     2     2  2.16e+03   356.       6.040     
   2    61   1     0     2     2  2.16e+03   362.       6.040     
   2    62   1     0     2     2  2.17e+03   368.       6.040     
   2    63   1     0     2     2  2.17e+03   374.       6.040     
   2    64   1     0     2     2  2.18e+03   381.       6.040     
   2    65   1     0     2     2  2.19e+03   387.       6.040     
   2    66   1     0     2     2  2.19e+03   393.       6.040     
   2    67   1     0     2     2  2.20e+03   399.       6.040     
   2    68   1     0     2     2  2.20e+03   405.       6.040     
   2    69   1     0     2     2  2.21e+03   411.       6.040     
   2    70   1     0     1     1  2.21e+03   412.       1.280     
   2    71   1     0     2     2  2.22e+03   417.       4.760     
   2    72   1     0     2     2  2.22e+03   423.       6.040     
   2    73   1     0     3     3  2.23e+03   429.       6.040     
   2    74   1     0     3     3  2.23e+03   435.       6.040     
   2    75   1     0     3     3  2.24e+03   441.       6.040     
   2    76   1     0     5     5  2.25e+03   447.       6.040     
   2    77   1     0     1     1  2.25e+03   447.       0.04000   
   2    78   1     0     3     3  2.25e+03   453.       6.000     
   2    79   1     0     3     3  2.26e+03   459.       6.040     
   2    80   1     0     3     3  2.27e+03   465.       6.040     
   2    81   1     0     3     3  2.27e+03   471.       6.040     
   2    82   1     0     3     3  2.28e+03   477.       6.040     
   2    83   1     0     3     3  2.28e+03   483.       6.040     
   2    84   1     0     3     3  2.29e+03   489.       6.040     
   2    85   1     0     3     3  2.30e+03   495.       6.040     
   2    86   1     0     3     3  2.30e+03   501.       6.040     
   2    87   1     0     3     3  2.31e+03   507.       6.040     
   2    88   1     0     3     3  2.31e+03   513.       6.040     
   2    89   1     0     3     3  2.32e+03   519.       6.040     
   2    90   1     0     3     3  2.33e+03   525.       6.040     
   2    91   1     0     3     3  2.33e+03   532.       6.040     
   2    92   1     0     3     3  2.34e+03   538.       6.040     
   2    93   1     0     3     3  2.34e+03   544.       6.040     
   2    94   1     0     3     3  2.35e+03   550.       6.040     
   2    95   1     0     3     3  2.36e+03   556.       6.040     
   2    96   1     0     3     3  2.36e+03   562.       6.040     
   2    97   1     0     3     3  2.37e+03   568.       6.040     
   2    98   1     0     3     3  2.37e+03   574.       6.040     
   2    99   1     0     3     3  2.38e+03   580.       6.040     
   2   100   1     0     4     4  2.39e+03   586.       6.040     
   2   101   1     0     4     4  2.39e+03   592.       6.040     
   2   102   1     0     4     4  2.40e+03   598.       6.040     
   2   103   1     0     5     5  2.40e+03   604.       6.040     
                          
 THE ANALYSIS HAS COMPLETED SUCCESSFULLY
