*Heading
Simulation of the bolt tightening
**
** PARTS
**
*Part, name=bolt
*Node, nset=All
      1,  5.04965514e-12,  0.850000024,  3.82783527e-11
      2,  0.122500002,  0.850000024, -0.212176219
      3,  0.122500002,   1.22500002, -0.212176219
      4,  5.04976616e-12,   1.22500002,  3.82777698e-11
      5, -0.122500002,  0.850000024, -0.212176219
      6, -0.122500002,   1.22500002, -0.212176219
      7, -0.122500002,  0.850000024,  0.212176219
      8, -0.122500002, -0.400000006,  0.212176219
      9,  5.04934983e-12, -0.400000006,  3.82802401e-11
     10,  0.122500002,  0.850000024,  0.212176219
     11,  0.122500002, -0.400000006,  0.212176219
     12,  0.245000005,  0.850000024,           0.
     13,  0.245000005,   1.22500002,           0.
     14, -0.245000005,  0.850000024,           0.
     15, -0.245000005,   1.22500002,           0.
     16, -0.122500002,   1.22500002,  0.212176219
     17,  0.122500002,   1.22500002,  0.212176219
     18,  0.245000005,   1.52499998,           0.
     19,  5.04983338e-12,   1.52499998,  3.82773153e-11
     20,  0.122500002,   1.52499998, -0.212176219
** ... 964 like lines cut
*Element, type=C3D8R, elset=All
 1, 297, 298, 761, 759,  42,  43, 293, 292
 2, 298,  46, 295, 761,  43,   1,  44, 293
 3, 299, 300, 758, 757, 297, 298, 761, 759
 4, 300,  45, 296, 758, 298,  46, 295, 761
 5, 295,  50, 303, 761,  44,   2,  47, 293
 6, 761, 303, 304, 759, 293,  47,  48, 292
 7, 296,  51, 305, 758, 295,  50, 303, 761
 8, 758, 305, 306, 757, 761, 303, 304, 759
 9, 304, 307, 762, 759,  48,  49, 294, 292
10, 307,  54, 309, 762,  49,   3,  52, 294
11, 306, 308, 760, 757, 304, 307, 762, 759
12, 308,  53, 310, 760, 307,  54, 309, 762
13, 309,  56, 301, 762,  52,   4,  41, 294
14, 762, 301, 297, 759, 294,  41,  42, 292
15, 310,  55, 302, 760, 309,  56, 301, 762
16, 760, 302, 299, 757, 762, 301, 297, 759
17, 300,  57, 305, 758,  45,   5,  51, 296
18, 299,  58, 306, 757, 300,  57, 305, 758
19, 299, 302, 760, 757,  58,  59, 308, 306
20, 302,  55, 310, 760,  59,   6,  53, 308
** ... 688 like lines cut
*Elset, elset=boltLoad_S3
  21,  22, 244, 309, 316, 439, 446, 497, 498, 641
*Elset, elset=boltLoad_S4
  41, 257, 264, 329, 336, 431, 438, 496, 654, 661
*Elset, elset=boltLoad_S2
  60,  61, 265, 266, 337, 453, 511, 512, 662, 663
*Surface, type=ELEMENT, name=boltLoad
boltLoad_S3, S3
boltLoad_S4, S4
boltLoad_S2, S2
*Solid Section, elset=All, material=steel
*End Part
**  
*Part, name=flange
*Node, nset=All
      1,   1.78502917,  0.524368942,   1.36970103
      2,   1.78502917, -0.600631058,   1.36970103
      3,   2.23073125, -0.600631058,  0.293681324
      4,   2.23073125,  0.524368942,  0.293681324
      5,   1.58670664, -0.597474694,   1.21752286
      6,   1.98288977, -0.597474694,   0.26105237
      7,   1.98288977,  0.524368942,   0.26105237
      8,   1.58670664,  0.524368942,   1.21752286
      9,   2.97431493,   1.27436888,  0.391575962
     10,   2.24997997,  0.524368942,           0.
     11,   2.99997997,   1.27436888,           0.
     12,   1.98288977,   1.77436888,   0.26105237
     13,   2.97431493,   1.77436888,  0.391575962
     14,           2.,  0.524368942,           0.
     15,           2.,   1.77436888,           0.
     16,   2.99997997,   1.77436888,           0.
     17,   1.41421354,  0.524368942,   1.41421354
     18,   1.41421354, -0.597474694,   1.41421354
     19,   1.59097612, -0.600631058,   1.59097612
     20,   1.59097612,  0.524368942,   1.59097612
** ... 1687 like lines cut
*Element, type=C3D8R, elset=All
 1,  137,  658, 1380,  646,    1,   92,  586,  113
 2,  658,  659, 1381, 1380,   92,   93,  587,  586
 3,  659,  660, 1382, 1381,   93,   94,  588,  587
 4,  660,  661, 1383, 1382,   94,   95,  589,  588
 5,  661,  662, 1384, 1383,   95,   96,  590,  589
 6,  662,  139,  652, 1384,   96,    2,   97,  590
 7,  646, 1380, 1385,  647,  113,  586,  591,  112
 8, 1380, 1381, 1386, 1385,  586,  587,  592,  591
 9, 1381, 1382, 1387, 1386,  587,  588,  593,  592
10, 1382, 1383, 1388, 1387,  588,  589,  594,  593
11, 1383, 1384, 1389, 1388,  589,  590,  595,  594
12, 1384,  652,  653, 1389,  590,   97,   98,  595
13,  647, 1385, 1390,  648,  112,  591,  596,  111
14, 1385, 1386, 1391, 1390,  591,  592,  597,  596
15, 1386, 1387, 1392, 1391,  592,  593,  598,  597
16, 1387, 1388, 1393, 1392,  593,  594,  599,  598
17, 1388, 1389, 1394, 1393,  594,  595,  600,  599
18, 1389,  653,  654, 1394,  595,   98,   99,  600
19,  648, 1390, 1395,  649,  111,  596,  601,  110
20, 1390, 1391, 1396, 1395,  596,  597,  602,  601
** ... 1040 like lines cut
*Solid Section, elset=All, material=brass
*End Part
**  
*Part, name=gasket
*Node, nset=All
      1,   1.98157322,  0.270864427,           0.
      2,    2.9723599,  0.406296641,           0.
      3,           3.,           0.,           0.
      4,           2.,           0.,           0.
      5,    2.9723599,  0.406296641,        0.125
      6,           3.,           0.,        0.125
      7,           2.,           0.,        0.125
      8,   1.98157322,  0.270864427,        0.125
      9,   3.96314645,  0.541728854,           0.
     10,   3.46775317,  0.474012762,           0.
     11,   2.76615596,   2.14438367,           0.
     12,   3.16132116,   2.45072412,           0.
     13,   3.46775317,  0.474012762,        0.125
     14,   2.76615596,   2.14438367,        0.125
     15,   3.16132116,   2.45072412,        0.125
     16,   3.96314645,  0.541728854,        0.125
     17,   3.49107146,  0.249840513,           0.
     18,         3.25,           0.,           0.
     19,   3.49107146,  0.249840513,        0.125
     20,         3.25,           0.,        0.125
** ... 2947 like lines cut
*Element, type=C3D8H, elset=All
 1,  120,  764, 2313,  758,    1,   71,  704,   94
 2,  764,  765, 2314, 2313,   71,   72,  705,  704
 3,  765,  766, 2315, 2314,   72,   73,  706,  705
 4,  766,  767, 2316, 2315,   73,   74,  707,  706
 5,  767,  768, 2317, 2316,   74,   75,  708,  707
 6,  768,  769, 2318, 2317,   75,   76,  709,  708
 7,  769,  770, 2319, 2318,   76,   77,  710,  709
 8,  770,  771, 2320, 2319,   77,   78,  711,  710
 9,  771,  772, 2321, 2320,   78,   79,  712,  711
10,  772,  122,  761, 2321,   79,    2,   80,  712
11,  758, 2313, 2322,  759,   94,  704,  713,   93
12, 2313, 2314, 2323, 2322,  704,  705,  714,  713
13, 2314, 2315, 2324, 2323,  705,  706,  715,  714
14, 2315, 2316, 2325, 2324,  706,  707,  716,  715
15, 2316, 2317, 2326, 2325,  707,  708,  717,  716
16, 2317, 2318, 2327, 2326,  708,  709,  718,  717
17, 2318, 2319, 2328, 2327,  709,  710,  719,  718
18, 2319, 2320, 2329, 2328,  710,  711,  720,  719
19, 2320, 2321, 2330, 2329,  711,  712,  721,  720
20, 2321,  761,  762, 2330,  712,   80,   81,  721
** ... 1788 like lines cut
*Solid Section, elset=All, material=rubber
*End Part
**  
*Part, name=halfBolt
*Node, nset=All
      1,  1.71650749e-11,   1.52499998,  1.72928893e-11
      2,  0.212176219,   1.52499998,  0.122500002
      3,  0.245000005,   1.52499998,           0.
      4,  1.71651027e-11,   1.22500002,  1.72932779e-11
      5,  0.212176219,   1.22500002,  0.122500002
      6,  0.245000005,   1.22500002,           0.
      7, -0.212176219,  0.850000024, -0.122500002
      8,  5.04971065e-12,  0.850000024,  3.82783527e-11
      9, -0.122500002,  0.850000024, -0.212176219
     10, -0.212176219, -0.400000006, -0.122500002
     11,  5.04940187e-12, -0.400000006,  3.82802227e-11
     12, -0.122500002, -0.400000006, -0.212176219
     13, -0.212176219,   1.22500002, -0.122500002
     14, -0.318749994,   1.22500002, -0.184030399
     15, -0.212500006,   1.22500002, -0.368060797
     16, -0.122500002,   1.22500002, -0.212176219
     17, -0.318749994,   1.52499998, -0.184030399
     18, -0.212500006,   1.52499998, -0.368060797
     19, -0.122500002,   1.52499998, -0.212176219
     20, -0.212176219,   1.52499998, -0.122500002
** ... 572 like lines cut
*Element, type=C3D8R, elset=All
 1, 220,  37, 218, 479,  35,   1,  36, 217
 2, 218,  40, 222, 479,  36,   2,  39, 217
 3, 222,  43, 220, 479,  39,   3,  35, 217
 4, 220, 221, 480, 479,  37,  38, 219, 218
 5, 221,  45, 224, 480,  38,   4,  44, 219
 6, 224,  46, 223, 480,  44,   5,  41, 219
 7, 480, 223, 222, 479, 219,  41,  40, 218
 8, 224,  45, 221, 480,  46,   6,  42, 223
 9, 480, 221, 220, 479, 223,  42,  43, 222
10, 238,  49, 226, 486,  47,   7,  48, 225
11, 239,  50, 227, 485, 238,  49, 226, 486
12, 240,  51, 228, 484, 239,  50, 227, 485
13, 241,  52, 229, 483, 240,  51, 228, 484
14, 242,  53, 230, 482, 241,  52, 229, 483
15, 243,  54, 231, 481, 242,  53, 230, 482
16, 226,  62, 250, 486,  48,   8,  61, 225
17, 227,  63, 251, 485, 226,  62, 250, 486
18, 228,  64, 252, 484, 227,  63, 251, 485
19, 229,  65, 253, 483, 228,  64, 252, 484
20, 230,  66, 254, 482, 229,  65, 253, 483
** ... 360 like lines cut
*Elset, elset=boltLoad_S2
  10,  16,  22,  61,  67,  73, 264, 356
*Elset, elset=boltLoad_S4
 242, 249, 348, 355
*Elset, elset=boltLoad_S3
 250, 257, 328, 335
*Surface, type=ELEMENT, name=boltLoad
boltLoad_S2, S2
boltLoad_S4, S4
boltLoad_S3, S3
*Solid Section, elset=All, material=steel
*End Part
**  
*Part, name=halfNut
*Node, nset=All
      1,  2.96541125e-11,  0.368060797,  0.324999988
      2,  2.96541125e-11,  0.368060797,           0.
      3, -0.212500006,  0.368060797,           0.
      4, -0.212500006,  0.368060797,  0.324999988
      5,  2.83878338e-11,  0.245000005,           0.
      6, -0.122500002,  0.212176219,           0.
      7, -0.122500002,  0.212176219,  0.324999988
      8,  2.83878338e-11,  0.245000005,  0.324999988
      9, -0.425000012,           0.,  0.324999988
     10, -0.425000012,           0.,           0.
     11, -0.245000005,  3.76472985e-12,           0.
     12, -0.245000005,  3.76472985e-12,  0.324999988
     13,  2.20793106e-11, -0.368060797,           0.
     14,  2.20793106e-11, -0.368060797,  0.324999988
     15, -0.212500006, -0.368060797,  0.324999988
     16, -0.212500006, -0.368060797,           0.
     17,  2.33455685e-11, -0.245000005,  0.324999988
     18, -0.122500002, -0.212176219,  0.324999988
     19, -0.122500002, -0.212176219,           0.
     20,  2.33455685e-11, -0.245000005,           0.
** ... 652 like lines cut
*Element, type=C3D8R, elset=All
 1,  60, 213, 481, 201,   1,  21, 165,  38
 2, 213, 214, 482, 481,  21,  22, 166, 165
 3, 214, 215, 483, 482,  22,  23, 167, 166
 4, 215, 216, 484, 483,  23,  24, 168, 167
 5, 216, 217, 485, 484,  24,  25, 169, 168
 6, 217, 218, 486, 485,  25,  26, 170, 169
 7, 218,  63, 207, 486,  26,   2,  27, 170
 8, 201, 481, 487, 202,  38, 165, 171,  37
 9, 481, 482, 488, 487, 165, 166, 172, 171
10, 482, 483, 489, 488, 166, 167, 173, 172
11, 483, 484, 490, 489, 167, 168, 174, 173
12, 484, 485, 491, 490, 168, 169, 175, 174
13, 485, 486, 492, 491, 169, 170, 176, 175
14, 486, 207, 208, 492, 170,  27,  28, 176
15, 202, 487, 493, 203,  37, 171, 177,  36
16, 487, 488, 494, 493, 171, 172, 178, 177
17, 488, 489, 495, 494, 172, 173, 179, 178
18, 489, 490, 496, 495, 173, 174, 180, 179
19, 490, 491, 497, 496, 174, 175, 181, 180
20, 491, 492, 498, 497, 175, 176, 182, 181
** ... 400 like lines cut
*Solid Section, elset=All, material=steel
*End Part
**  
*Part, name=nut
*Node, nset=All
      1,  0.425000012,  1.77778903e-11,  0.324999988
      2,  0.212500006, -0.368060797,  0.324999988
      3,  0.212500006, -0.368060797,           0.
      4,  0.425000012,  1.77778903e-11,           0.
      5,  0.122500002, -0.212176219,  0.324999988
      6,  0.122500002, -0.212176219,           0.
      7,  0.245000005,  1.40131604e-11,           0.
      8,  0.245000005,  1.40131604e-11,  0.324999988
      9, -0.245000005,  3.76479186e-12,  0.324999988
     10, -0.245000005,  3.76479186e-12,           0.
     11, -0.122500002,  0.212176219,           0.
     12, -0.122500002,  0.212176219,  0.324999988
     13, -0.425000012,           0.,           0.
     14, -0.212500006,  0.368060797,           0.
     15, -0.212500006,  0.368060797,  0.324999988
     16, -0.425000012,           0.,  0.324999988
     17, -0.122500002, -0.212176219,           0.
     18, -0.122500002, -0.212176219,  0.324999988
     19, -0.212500006, -0.368060797,           0.
     20, -0.212500006, -0.368060797,  0.324999988
** ... 1132 like lines cut
*Element, type=C3D8R, elset=All
  1,  72, 325, 793, 301,   1,  25, 241,  46
  2, 325, 326, 794, 793,  25,  26, 242, 241
  3, 326, 327, 795, 794,  26,  27, 243, 242
  4, 327, 328, 796, 795,  27,  28, 244, 243
  5, 328, 329, 797, 796,  28,  29, 245, 244
  6, 329,  75, 313, 797,  29,   2,  30, 245
  7, 301, 793, 798, 302,  46, 241, 246,  45
  8, 793, 794, 799, 798, 241, 242, 247, 246
  9, 794, 795, 800, 799, 242, 243, 248, 247
 10, 795, 796, 801, 800, 243, 244, 249, 248
 11, 796, 797, 802, 801, 244, 245, 250, 249
 12, 797, 313, 314, 802, 245,  30,  31, 250
 13, 302, 798, 803, 303,  45, 246, 251,  44
 14, 798, 799, 804, 803, 246, 247, 252, 251
 15, 799, 800, 805, 804, 247, 248, 253, 252
 16, 800, 801, 806, 805, 248, 249, 254, 253
 17, 801, 802, 807, 806, 249, 250, 255, 254
 18, 802, 314, 315, 807, 250,  31,  32, 255
 19, 303, 803, 808, 304,  44, 251, 256,  43
 20, 803, 804, 809, 808, 251, 252, 257, 256
** ... 736 like lines cut
*Solid Section, elset=All, material=steel
*End Part
**  
**
** ASSEMBLY
**
*Assembly, name=Assembly
**  
*Instance, name=botFlange, part=flange
*End Instance
**  
*Instance, name=topFlange, part=flange
 0., 3.67373785032527, 0.
 0., 3.67373785032527, 0., 0.707106781186547, 3.67373785032527, 0.707106781186548, 180.
*End Instance
**  
*Instance, name=Gasket-1, part=gasket
 0., 1.77436892516264, 0.
 0., 1.77436892516264, 0., 0.577350269189626, 2.35171919435226, 0.577350269189626, 240.
*End Instance
**  
*Instance, name=Bolt-1, part=bolt
 2.47487373415292, 1.17436892516264, 2.47487373415292
 2.47487373415292, 1.17436892516264, 2.47487373415292, 2.47487373415292, 0.174368925162637, 2.47487373415292, 15.
*End Instance
**  
*Instance, name=nut-1, part=nut
 2.47487373415292, 1.27436892516264, 2.47487373415292
 2.47487373415292, 1.27436892516264, 2.47487373415292, 3.45797933768437, 1.14494062009558, 2.60430203921997, 90.9761995254064
*End Instance
**  
*Instance, name=HalfBolt-1, part=halfBolt
 0., 1.17436892516264, 3.5
 0., 1.17436892516264, 3.5, 0., 0.174368925162636, 3.5, 60.
*End Instance
**  
*Instance, name=HalfNut-1, part=halfNut
 0., 1.27436892516264, 3.5
 0., 1.27436892516264, 3.5, 0., 1.98147570634918, 2.79289321881345, 180.
*End Instance
**  
*Instance, name=HalfBolt-2, part=halfBolt
 3.5, 1.17436892516264, 0.
 3.5, 1.17436892516264, 0., 3.5, 2.17436892516264, 0., 210.
*End Instance
**  
*Instance, name=HalfNut-2, part=halfNut
 3.5, 1.27436892516264, 0.
 3.5, 1.27436892516264, 0., 4.07735026918963, 1.85171919435226, -0.577350269163759, 120.
*End Instance
**  
*Nset, nset=Csymm-x, instance=botFlange
   21,   24,   27,   28,   48,   49,   52,   53,   70,   71,   72,   74,   75,  193,  194,  195
  196,  197,  205,  206,  207,  208,  209,  210,  211,  349,  350,  351,  352,  353,  362,  437
  438,  439,  440,  441,  442,  443,  445,  446,  447,  448,  449,  461,  462,  466,  467,  718
  719,  720,  721,  722,  986,  987, 1105, 1106, 1107, 1108, 1109, 1136, 1137
*Nset, nset=Csymm-x, instance=topFlange
   10,   11,   14,   15,   16,   82,   83,   84,   85,   88,   89,   90,   91,  148,  149,  150
  151,  152,  153,  154,  164,  165,  166,  167,  168,  169,  520,  521,  522,  523,  524,  526
  527,  528,  529,  530,  531,  550,  551,  552,  553,  575,  576,  577,  578,  579,  585,  680
  681,  682,  683,  684, 1227, 1228, 1229, 1230, 1231, 1286, 1287, 1375, 1376
*Nset, nset=Csymm-x, instance=HalfNut-1
   1,   2,   5,   8,  13,  14,  17,  20,  21,  22,  23,  24,  25,  26,  39,  40
  41,  42,  43,  44,  59,  60,  63,  64, 101, 102, 103, 104, 105, 106, 119, 120
 121, 122, 123, 124, 139, 140, 143, 144, 213, 214, 215, 216, 217, 218, 219, 220
 221, 222, 223, 224, 377, 378, 379, 380, 381, 382, 383, 384, 385, 386, 387, 388
*Nset, nset=Csymm-x, instance=Gasket-1
    3,    4,    6,    7,   18,   20,   23,   24,   25,   26,   83,   84,   85,   86,   87,   88
   89,   90,   91,  107,  108,  109,  110,  111,  112,  113,  114,  115,  119,  121,  210,  211
  212,  223,  224,  266,  267,  268,  274,  284,  285,  773,  774,  775,  776,  777,  778,  779
  780,  781,  950,  951, 1108, 1109
*Nset, nset=Csymm-x, instance=HalfBolt-1
   1,   2,   4,   5,   7,   8,  10,  11,  13,  14,  17,  20,  21,  23,  33,  34
  36,  37,  38,  40,  41,  44,  48,  49,  50,  51,  52,  53,  54,  55,  56,  57
  58,  59,  60,  62,  63,  64,  65,  66,  67,  68,  69,  70,  71,  72,  73,  86
  89,  93,  99, 100, 103, 104, 106, 108, 109, 110, 111, 112, 113, 114, 115, 116
 117, 118, 119, 132, 135, 136, 137, 138, 139, 140, 163, 164, 165, 166, 173, 205
 206, 207, 208, 218, 219, 226, 227, 228, 229, 230, 231, 232, 233, 234, 235, 236
 237, 269, 270, 274, 275, 276, 277, 278, 279, 280, 281, 282, 283, 284, 285, 314
 315, 316, 352, 353, 354, 367, 368, 439, 440
*Nset, nset=Csymm-z, instance=botFlange
   10,   11,   14,   15,   16,   82,   83,   84,   85,   88,   89,   90,   91,  148,  149,  150
  151,  152,  153,  154,  164,  165,  166,  167,  168,  169,  520,  521,  522,  523,  524,  526
  527,  528,  529,  530,  531,  550,  551,  552,  553,  575,  576,  577,  578,  579,  585,  680
  681,  682,  683,  684, 1227, 1228, 1229, 1230, 1231, 1286, 1287, 1375, 1376
*Nset, nset=Csymm-z, instance=topFlange
   21,   24,   27,   28,   48,   49,   52,   53,   70,   71,   72,   74,   75,  193,  194,  195
  196,  197,  205,  206,  207,  208,  209,  210,  211,  349,  350,  351,  352,  353,  362,  437
  438,  439,  440,  441,  442,  443,  445,  446,  447,  448,  449,  461,  462,  466,  467,  718
  719,  720,  721,  722,  986,  987, 1105, 1106, 1107, 1108, 1109, 1136, 1137
*Nset, nset=Csymm-z, instance=HalfBolt-2
   1,   2,   4,   5,   7,   8,  10,  11,  13,  14,  17,  20,  21,  23,  33,  34
  36,  37,  38,  40,  41,  44,  48,  49,  50,  51,  52,  53,  54,  55,  56,  57
  58,  59,  60,  62,  63,  64,  65,  66,  67,  68,  69,  70,  71,  72,  73,  86
  89,  93,  99, 100, 103, 104, 106, 108, 109, 110, 111, 112, 113, 114, 115, 116
 117, 118, 119, 132, 135, 136, 137, 138, 139, 140, 163, 164, 165, 166, 173, 205
 206, 207, 208, 218, 219, 226, 227, 228, 229, 230, 231, 232, 233, 234, 235, 236
 237, 269, 270, 274, 275, 276, 277, 278, 279, 280, 281, 282, 283, 284, 285, 314
 315, 316, 352, 353, 354, 367, 368, 439, 440
*Nset, nset=Csymm-z, instance=HalfNut-2
   1,   2,   5,   8,  13,  14,  17,  20,  21,  22,  23,  24,  25,  26,  39,  40
  41,  42,  43,  44,  59,  60,  63,  64, 101, 102, 103, 104, 105, 106, 119, 120
 121, 122, 123, 124, 139, 140, 143, 144, 213, 214, 215, 216, 217, 218, 219, 220
 221, 222, 223, 224, 377, 378, 379, 380, 381, 382, 383, 384, 385, 386, 387, 388
*Nset, nset=Csymm-z, instance=Gasket-1
   54,   55,   58,   59,   62,   63,   65,   66,   69,   70,  506,  507,  508,  509,  520,  521
  535,  536,  537,  542,  554,  555,  627,  628,  629,  630,  631,  632,  633,  634,  635,  639
  640,  641,  642,  643,  644,  645,  646,  647,  651, 1697, 1698, 1728, 1729, 2070, 2071, 2072
 2073, 2074, 2075, 2076, 2077, 2078
*Nset, nset=Bottom, instance=botFlange
    2,    3,    5,    6,   18,   19,   23,   24,   26,   27,   37,   38,   82,   83,   97,   98
   99,  100,  101,  102,  119,  120,  121,  122,  123,  124,  138,  139,  171,  178,  184,  192
  204,  210,  212,  255,  256,  257,  258,  259,  260,  272,  273,  274,  275,  276,  277,  278
  377,  378,  519,  525,  531,  652,  653,  654,  655,  656,  657,  707,  729,  824,  825,  826
  827,  828,  829, 1007, 1226
**
*Elset, elset=botFlgIn_S2, instance=botFlange
  109,  183,  444,  445,  446,  447,  448,  449,  450,  451,  452,  496,  541,  542,  545,  546
  549,  550,  551,  552,  553,  554,  555,  556,  557,  558,  559,  560,  561,  562,  563,  564
  565,  566,  567,  568,  569,  621,  622,  623,  624,  625,  626,  665,  667,  669,  671,  706
  708,  709,  710,  739,  741,  742,  934,  935,  936,  943,  944,  945,  946,  951,  952,  953
  954,  959,  960,  961,  965,  966,  967, 1053, 1054, 1057, 1058
*Elset, elset=botFlgIn_S3, instance=botFlange
   99,  107,  173,  181,  357,  358,  359,  360,  406,  408,  410,  412,  438,  439,  440,  474
  476,  478,  490,  494,  531,  532,  537,  539,  614,  618,  643,  663,  691,  697,  698,  699
  727,  729,  735,  736,  919, 1043, 1044, 1049, 1051
*Elset, elset=botFlgIn_S4, instance=botFlange
  102,  176,  271,  274,  277,  280,  283,  286,  289,  292,  295,  298,  301,  304,  307,  310
  313,  316,  319,  322,  325,  328,  331,  334,  337,  340,  343,  346,  349,  352,  366,  368
  370,  481,  483,  485,  536,  615,  640,  654,  696,  732,  734,  834,  837,  840,  843,  846
  849,  852,  855,  858,  861,  864,  867,  870,  873,  876,  879,  882,  885,  888,  891,  894
  897,  900,  903,  906,  909,  912,  915,  918,  924,  926,  928,  930, 1048
*Elset, elset=botFlgIn_S1, instance=botFlange, generate
 787,  807,    1
*Surface, type=ELEMENT, name=botFlgIn
botFlgIn_S2, S2
botFlgIn_S3, S3
botFlgIn_S4, S4
botFlgIn_S1, S1
**
*Elset, elset=botGsk_S2, instance=Gasket-1
    1,    2,    3,    4,    5,    6,    7,    8,    9,   10,   11,   12,   13,   14,   15,   16
   17,   18,   19,   20,   21,   22,   23,   24,   25,   26,   27,   28,   29,   30,   31,   32
   33,   34,   35,   36,   37,   38,   39,   40,   81,   82,   83,   84,   85,   86,   87,   88
   89,   90,   91,   92,   93,   94,   95,   96,   97,   98,   99,  100,  101,  102,  103,  104
  105,  106,  107,  108,  109,  110,  111,  112,  113,  114,  115,  116,  117,  118,  119,  120
  121,  122,  123,  124,  125,  126,  127,  128,  129,  130,  131,  132,  133,  134,  135,  136
  137,  138,  139,  140,  141,  142,  143,  144,  145,  146,  147,  148,  149,  150,  151,  152
  153,  154,  155,  231,  232,  233,  234,  235,  236,  237,  238,  239,  240,  241,  242,  243
  244,  245,  246,  247,  248,  249,  269,  270,  271,  272,  273,  274,  275,  276,  277,  278
  279,  280,  281,  282,  283,  284,  285,  286,  287,  288,  289,  290,  291,  292,  293,  294
  295,  296,  297,  298,  299,  300,  301,  302,  303,  304,  305,  306,  307,  308,  309,  310
  311,  312,  313,  314,  315,  316,  317,  318,  319,  320,  321,  322,  323,  324,  325,  326
  327,  328,  329,  330,  331,  332,  333,  334,  335,  336,  337,  338,  339,  340,  341,  342
  343,  419,  420,  421,  422,  423,  424,  425,  426,  427,  428,  429,  430,  431,  432,  433
  434,  435,  436,  437,  438,  439,  440,  463,  464,  465,  466,  467,  468,  469,  470,  471
  472,  473,  474,  475,  476,  477,  478,  479,  480,  481,  482,  483,  484,  485,  486,  487
  488,  489,  490,  491,  492,  493,  494,  495,  496,  497,  498,  499,  500,  501,  502,  503
  504,  505,  506,  507,  508,  509,  510,  511,  512,  513,  514,  515,  516,  517,  518,  519
  520,  521,  522,  523,  524,  525,  526,  527,  528,  529,  530,  531,  532,  533,  534,  535
  536,  537,  538,  539,  540,  541,  542,  543,  544,  545,  546,  547,  548,  549,  550,  551
** ... 11 like lines cut
*Elset, elset=botGsk_S1, instance=Gasket-1
  803,  804,  805,  806,  807,  808,  809,  810,  811,  812,  813,  814,  815,  816,  817,  818
  819,  820,  821,  822,  823,  824,  825,  826,  827,  828,  829,  830,  831,  832,  833,  834
  835,  836,  837,  838,  839,  840,  841,  842, 1047, 1048, 1049, 1050, 1051, 1052, 1053, 1054
 1055, 1056, 1057, 1058, 1059, 1060, 1061, 1062, 1063, 1064, 1065, 1066, 1067, 1068, 1069, 1070
 1071, 1072, 1073, 1074, 1075, 1076, 1077, 1078, 1079, 1080, 1081, 1082, 1083, 1084, 1085, 1086
 1309, 1310, 1311, 1312, 1313, 1314, 1315, 1316, 1317, 1318, 1319, 1320, 1321, 1322, 1323, 1324
 1325, 1326, 1327, 1328, 1329, 1330, 1331, 1332, 1333, 1334, 1335, 1336, 1337, 1338, 1339, 1340
 1341, 1342, 1343, 1344, 1345, 1346, 1347, 1348, 1349, 1350, 1351, 1352, 1353, 1354, 1355, 1356
 1357, 1358, 1359, 1360, 1361, 1362, 1363, 1364, 1365, 1366, 1367, 1368, 1369, 1370, 1371, 1372
 1373, 1374, 1375, 1376, 1377, 1378, 1379, 1380, 1381, 1382, 1383, 1384, 1385, 1386, 1387, 1388
 1389, 1390, 1391, 1392, 1393, 1394, 1395, 1396, 1397, 1398, 1399, 1400, 1401, 1402, 1403, 1404
 1405, 1406, 1407, 1408, 1409, 1410, 1411, 1412, 1413, 1414, 1415, 1416, 1417, 1418, 1419, 1420
 1421, 1422, 1423, 1424, 1425, 1426, 1427, 1428, 1429, 1430, 1431, 1432, 1433, 1434, 1435, 1436
 1437, 1438, 1439, 1440, 1441, 1442, 1443, 1444, 1445, 1446, 1447, 1448, 1489, 1490, 1491, 1492
 1493, 1494, 1495, 1496, 1497, 1498, 1499, 1500, 1501, 1502, 1503, 1504, 1505, 1506, 1507, 1508
 1509, 1510, 1511, 1512, 1513, 1514, 1515, 1516, 1517, 1518, 1519, 1520, 1521, 1522, 1523, 1524
 1525, 1526, 1527, 1528, 1599, 1600, 1601, 1602, 1603, 1604, 1605, 1606, 1607, 1608, 1609, 1610
 1611, 1612, 1613, 1614, 1615, 1616, 1617, 1618, 1619, 1620, 1621, 1622, 1623, 1624, 1625, 1626
 1627, 1628, 1629, 1630, 1631, 1632, 1633, 1634, 1635, 1636, 1637, 1638, 1639, 1640, 1641, 1642
 1643, 1644, 1645, 1646, 1647, 1648, 1649, 1650, 1651, 1652, 1653, 1654, 1655, 1656, 1657, 1658
** ... 5 like lines cut
*Elset, elset=botGsk_S3, instance=Gasket-1
 862, 863
*Elset, elset=botGsk_S4, instance=Gasket-1, generate
 864,  880,    1
*Surface, type=ELEMENT, name=botGsk
botGsk_S2, S2
botGsk_S1, S1
botGsk_S4, S4
botGsk_S3, S3
**
*Elset, elset=holeBotFlg_S3, instance=botFlange
 480, 481, 482, 483, 484, 485, 496, 497, 527, 528, 615, 621, 622, 623, 722, 723
*Elset, elset=holeBotFlg_S4, instance=botFlange
 486, 487, 488, 493, 525, 526, 537, 538, 539, 540, 545, 546, 547, 548, 616, 617
 720, 721, 727, 728, 729, 730
*Elset, elset=holeBotFlg_S2, instance=botFlange
 627, 628, 629, 630, 631, 632, 735, 736, 737, 738
*Surface, type=ELEMENT, name=holeBotFlg
holeBotFlg_S3, S3
holeBotFlg_S4, S4
holeBotFlg_S2, S2
**
*Elset, elset=shankBolt_S4, instance=Bolt-1
   5,   6,   7,   8,  17,  18,  42,  43,  44,  45,  46,  47,  94,  95,  96,  97
 146, 147, 148, 149, 162, 163, 226, 227, 228, 229, 230, 231, 244, 245, 246, 247
 248, 249, 250, 265, 266, 267, 268, 269, 270, 271, 272, 273, 274, 275, 276, 277
 278, 303, 304, 305, 306, 307, 308, 407, 408, 409, 410, 411, 412, 413, 414, 415
 416, 417, 418, 439, 440, 441, 442, 443, 444, 445, 446, 447, 448, 449, 450, 451
 452, 453, 454, 455, 456, 457, 458, 459, 478, 479, 480, 481, 482, 483, 484, 485
 486, 487, 488, 489, 599, 600, 623, 624, 625, 626, 627, 628, 641, 642, 643, 644
 645, 646, 647, 662, 663, 664, 665, 666, 667, 668, 669, 670, 671, 672, 673, 674
 675,
*Elset, elset=shankBolt_S3, instance=Bolt-1
   9,  10,  11,  12,  35,  36,  37,  38,  39,  40,  41,  60,  61,  62,  63,  64
  65,  66,  67,  68,  69,  70,  71,  72,  73,  90,  91,  92,  93, 102, 103, 104
 105, 158, 159, 160, 161, 232, 233, 234, 235, 236, 237, 238, 239, 240, 241, 242
 243, 279, 280, 281, 282, 283, 284, 285, 286, 287, 288, 289, 290, 323, 324, 325
 326, 327, 328, 329, 330, 331, 332, 333, 334, 335, 336, 337, 338, 339, 340, 341
 342, 343, 419, 420, 421, 422, 423, 424, 460, 461, 462, 463, 464, 465, 490, 491
 492, 493, 494, 495, 496, 511, 512, 513, 514, 515, 516, 517, 518, 519, 520, 521
 522, 523, 524, 595, 596, 597, 598, 601, 602, 603, 604, 609, 610, 629, 630, 631
 632, 633, 634, 635, 636, 637, 638, 639, 640
*Elset, elset=shankBolt_S2, instance=Bolt-1
  19,  20,  74,  75,  76,  77,  78,  79,  80,  81,  82,  83,  84,  85, 106, 107
 108, 109, 110, 111, 112, 113, 114, 115, 116, 117, 126, 127, 128, 129, 130, 131
 132, 133, 134, 135, 136, 137, 164, 165
*Surface, type=ELEMENT, name=shankBolt
shankBolt_S4, S4
shankBolt_S3, S3
shankBolt_S2, S2
**
*Elset, elset=botFlgOut_S1, instance=botFlange, generate
 591,  611,    1
*Elset, elset=botFlgOut_S6, instance=botFlange
 269, 272, 275, 278, 281, 284, 287, 290, 293, 296, 299, 302, 305, 308, 311, 314
 317, 320, 323, 326, 329, 332, 335, 338, 341, 344, 347, 350, 832, 835, 838, 841
 844, 847, 850, 853, 856, 859, 862, 865, 868, 871, 874, 877, 880, 883, 886, 889
 892, 895, 898, 901, 904, 907, 910, 913
*Elset, elset=botFlgOut_S4, instance=botFlange
 454, 471, 472, 473, 489, 613, 620, 693, 703, 704, 705, 921
*Elset, elset=botFlgOut_S3, instance=botFlange
 455, 456, 459, 461, 486, 487, 488, 616, 627, 628, 629, 694, 714, 916, 922, 931
 932, 933, 940, 941, 942
*Elset, elset=botFlgOut_S2, instance=botFlange
  463,  464,  467,  468,  492,  493,  522,  523,  524,  525,  526,  527,  528,  529,  530,  633
  634,  635,  715,  716,  717,  718,  719,  720,  721,  722,  723,  724,  725,  726,  745,  746
  747,  748,  749,  750,  751,  752,  753,  754,  755,  756,  757,  758,  759,  760,  761,  762
  763,  764,  765, 1034, 1035, 1036, 1037, 1038, 1039, 1040, 1041, 1042
*Surface, type=ELEMENT, name=botFlgOut
botFlgOut_S1, S1
botFlgOut_S6, S6
botFlgOut_S4, S4
botFlgOut_S2, S2
botFlgOut_S3, S3
**
*Elset, elset=topNut_S6, instance=nut-1, generate
 379,  498,    7
*Elset, elset=topNut_S5, instance=nut-1
  37,  38,  39,  40,  41,  42,  79,  80,  81,  82,  83,  84, 121, 122, 123, 124
 125, 126, 667, 668, 669, 670, 671, 672, 709, 710, 711, 712, 713, 714, 751, 752
 753, 754, 755, 756
*Elset, elset=topNut_S4, instance=nut-1
 133, 140, 147, 154, 161, 168, 175, 182, 189, 196, 203, 210, 217, 224, 231, 238
 245, 252, 259, 266, 273, 280, 287, 294, 301, 308, 315, 322, 329, 336, 343, 350
 357, 364, 371, 378, 511, 518, 525, 532, 539, 546, 553, 560, 567, 574, 581, 588
 595, 602, 609, 616, 623, 630
*Surface, type=ELEMENT, name=topNut
topNut_S6, S6
topNut_S5, S5
topNut_S4, S4
**
*Elset, elset=botFlg-halfHole-1_S4, instance=botFlange
 447, 448, 459, 460, 461, 462, 467, 468, 469, 470, 706, 707, 714, 715, 716, 717
*Elset, elset=botFlg-halfHole-1_S3, instance=botFlange
 449, 450, 708, 709, 710, 711, 712, 713
*Surface, type=ELEMENT, name=botFlg-halfHole-1
botFlg-halfHole-1_S4, S4
botFlg-halfHole-1_S3, S3
**
*Elset, elset=shankHalfBolt-1_S3, instance=HalfBolt-1
  10,  11,  12,  13,  14,  15,  28,  29,  30,  31,  32,  33,  34,  73,  74,  75
  76,  77,  78,  93,  94,  95,  96,  97,  98,  99, 102, 103, 106, 107, 110, 111
 118, 119, 136, 137, 144, 145, 146, 147, 148, 149, 150, 151, 156, 157, 162, 163
 206, 207, 208, 209, 210, 211, 212, 213, 214, 215, 216, 217, 236, 237, 238, 239
 240, 241, 242, 243, 244, 245, 246, 247, 248, 249, 264, 265, 266, 267, 268, 269
 270, 322, 323, 324, 325, 326, 327
*Elset, elset=shankHalfBolt-1_S4, instance=HalfBolt-1
  22,  23,  24,  25,  26,  27,  42,  43,  44,  45,  46,  47,  48,  67,  68,  69
  70,  71,  72,  86,  87,  88,  89,  90,  91,  92, 104, 105, 116, 117, 124, 125
 126, 127, 138, 139, 152, 153, 160, 161, 230, 231, 232, 233, 234, 235, 310, 311
 312, 313, 314, 315, 316, 317, 318, 319, 320, 321, 328, 329, 330, 331, 332, 333
 334, 335, 336, 337, 338, 339, 340, 341, 356, 357, 358, 359, 360, 361, 362
*Elset, elset=shankHalfBolt-1_S2, instance=HalfBolt-1, generate
 128,  131,    1
*Surface, type=ELEMENT, name=shankHalfBolt-1
shankHalfBolt-1_S3, S3
shankHalfBolt-1_S4, S4
shankHalfBolt-1_S2, S2
**
*Elset, elset=topHalfNut-1_S6, instance=HalfNut-1, generate
 211,  288,    7
*Elset, elset=topHalfNut-1_S4, instance=HalfNut-1, generate
  7,  84,   7
*Elset, elset=topHalfNut-1_S5, instance=HalfNut-1
 121, 122, 123, 124, 125, 126, 163, 164, 165, 166, 167, 168, 205, 206, 207, 208
 209, 210, 331, 332, 333, 334, 335, 336, 373, 374, 375, 376, 377, 378, 415, 416
 417, 418, 419, 420
*Surface, type=ELEMENT, name=topHalfNut-1
topHalfNut-1_S6, S6
topHalfNut-1_S4, S4
topHalfNut-1_S5, S5
**
*Elset, elset=botFlg-halfHole-2_S4, instance=botFlange
  919,  920,  934,  935,  936,  937,  938,  939,  940,  941,  942, 1037, 1038, 1049, 1050, 1051
 1052, 1057, 1058, 1059, 1060
*Elset, elset=botFlg-halfHole-2_S3, instance=botFlange
  921, 1039, 1040
*Surface, type=ELEMENT, name=botFlg-halfHole-2
botFlg-halfHole-2_S4, S4
botFlg-halfHole-2_S3, S3
**
*Elset, elset=shankHalfBolt-2_S3, instance=HalfBolt-2
  10,  11,  12,  13,  14,  15,  28,  29,  30,  31,  32,  33,  34,  73,  74,  75
  76,  77,  78,  93,  94,  95,  96,  97,  98,  99, 102, 103, 106, 107, 110, 111
 118, 119, 136, 137, 144, 145, 146, 147, 148, 149, 150, 151, 156, 157, 162, 163
 206, 207, 208, 209, 210, 211, 212, 213, 214, 215, 216, 217, 236, 237, 238, 239
 240, 241, 242, 243, 244, 245, 246, 247, 248, 249, 264, 265, 266, 267, 268, 269
 270, 322, 323, 324, 325, 326, 327
*Elset, elset=shankHalfBolt-2_S4, instance=HalfBolt-2
  22,  23,  24,  25,  26,  27,  42,  43,  44,  45,  46,  47,  48,  67,  68,  69
  70,  71,  72,  86,  87,  88,  89,  90,  91,  92, 104, 105, 116, 117, 124, 125
 126, 127, 138, 139, 152, 153, 160, 161, 230, 231, 232, 233, 234, 235, 310, 311
 312, 313, 314, 315, 316, 317, 318, 319, 320, 321, 328, 329, 330, 331, 332, 333
 334, 335, 336, 337, 338, 339, 340, 341, 356, 357, 358, 359, 360, 361, 362
*Elset, elset=shankHalfBolt-2_S2, instance=HalfBolt-2, generate
 128,  131,    1
*Surface, type=ELEMENT, name=shankHalfBolt-2
shankHalfBolt-2_S3, S3
shankHalfBolt-2_S4, S4
shankHalfBolt-2_S2, S2
**
*Elset, elset=topHalfNut-2_S6, instance=HalfNut-2, generate
 211,  288,    7
*Elset, elset=topHalfNut-2_S4, instance=HalfNut-2, generate
  7,  84,   7
*Elset, elset=topHalfNut-2_S5, instance=HalfNut-2
 121, 122, 123, 124, 125, 126, 163, 164, 165, 166, 167, 168, 205, 206, 207, 208
 209, 210, 331, 332, 333, 334, 335, 336, 373, 374, 375, 376, 377, 378, 415, 416
 417, 418, 419, 420
*Surface, type=ELEMENT, name=topHalfNut-2
topHalfNut-2_S6, S6
topHalfNut-2_S4, S4
topHalfNut-2_S5, S5
**
*Elset, elset=topFlgIn_S2, instance=topFlange
  109,  183,  444,  445,  446,  447,  448,  449,  450,  451,  452,  496,  541,  542,  545,  546
  549,  550,  551,  552,  553,  554,  555,  556,  557,  558,  559,  560,  561,  562,  563,  564
  565,  566,  567,  568,  569,  621,  622,  623,  624,  625,  626,  665,  667,  669,  671,  706
  708,  709,  710,  739,  741,  742,  934,  935,  936,  943,  944,  945,  946,  951,  952,  953
  954,  959,  960,  961,  965,  966,  967, 1053, 1054, 1057, 1058
*Elset, elset=topFlgIn_S3, instance=topFlange
   99,  107,  173,  181,  357,  358,  359,  360,  406,  408,  410,  412,  438,  439,  440,  474
  476,  478,  490,  494,  531,  532,  537,  539,  614,  618,  643,  663,  691,  697,  698,  699
  727,  729,  735,  736,  919, 1043, 1044, 1049, 1051
*Elset, elset=topFlgIn_S4, instance=topFlange
  102,  176,  271,  274,  277,  280,  283,  286,  289,  292,  295,  298,  301,  304,  307,  310
  313,  316,  319,  322,  325,  328,  331,  334,  337,  340,  343,  346,  349,  352,  366,  368
  370,  481,  483,  485,  536,  615,  640,  654,  696,  732,  734,  834,  837,  840,  843,  846
  849,  852,  855,  858,  861,  864,  867,  870,  873,  876,  879,  882,  885,  888,  891,  894
  897,  900,  903,  906,  909,  912,  915,  918,  924,  926,  928,  930, 1048
*Elset, elset=topFlgIn_S1, instance=topFlange, generate
 787,  807,    1
*Surface, type=ELEMENT, name=topFlgIn
topFlgIn_S2, S2
topFlgIn_S3, S3
topFlgIn_S4, S4
topFlgIn_S1, S1
**
*Elset, elset=topGsk_S1, instance=Gasket-1
  41,  42,  43,  44,  45,  46,  47,  48,  49,  50,  51,  52,  53,  54,  55,  56
  57,  58,  59,  60,  61,  62,  63,  64,  65,  66,  67,  68,  69,  70,  71,  72
  73,  74,  75,  76,  77,  78,  79,  80, 156, 157, 158, 159, 160, 161, 162, 163
 164, 165, 166, 167, 168, 169, 170, 171, 172, 173, 174, 175, 176, 177, 178, 179
 180, 181, 182, 183, 184, 185, 186, 187, 188, 189, 190, 191, 192, 193, 194, 195
 196, 197, 198, 199, 200, 201, 202, 203, 204, 205, 206, 207, 208, 209, 210, 211
 212, 213, 214, 215, 216, 217, 218, 219, 220, 221, 222, 223, 224, 225, 226, 227
 228, 229, 230, 344, 345, 346, 347, 348, 349, 350, 351, 352, 353, 354, 355, 356
 357, 358, 359, 360, 361, 362, 363, 364, 365, 366, 367, 368, 369, 370, 371, 372
 373, 374, 375, 376, 377, 378, 379, 380, 381, 382, 383, 384, 385, 386, 387, 388
 389, 390, 391, 392, 393, 394, 395, 396, 397, 398, 399, 400, 401, 402, 403, 404
 405, 406, 407, 408, 409, 410, 411, 412, 413, 414, 415, 416, 417, 418, 613, 614
 615, 616, 617, 618, 619, 620, 621, 622, 623, 624, 625, 626, 627, 628, 629, 630
 631, 632, 633, 634, 635, 636, 637, 638, 639, 640, 641, 642, 643, 644, 645, 646
 647, 648, 649, 650, 651, 652, 653, 654, 655, 656, 657, 658, 659, 660, 661, 662
 663, 664, 665, 666, 667, 668, 669, 670, 671, 672, 673, 674, 675, 676, 677, 678
 679, 680, 681, 682, 683, 684, 685, 686, 687, 688, 689, 690, 691, 692, 693, 694
 695, 696, 697, 698, 699, 700, 701, 702, 703, 704, 705, 706, 707, 708, 709, 710
 711, 712, 713, 714, 715, 716, 717, 718, 719, 720, 721, 722, 723, 724, 725, 726
 727, 728, 729, 730, 731, 732, 733, 734, 735, 736, 737, 738, 739, 740, 741, 742
 743, 744, 745, 746, 747, 748, 749, 750, 751, 752, 753, 754, 755, 756, 757, 758
 759, 760, 761, 762
*Elset, elset=topGsk_S4, instance=Gasket-1
  250,  251,  252,  253,  441,  442,  443,  444,  445,  446,  909,  910,  911,  912,  950,  951
  952,  953,  954,  955,  992,  993,  994,  995,  996,  997, 1115, 1116, 1117, 1118, 1154, 1155
 1156, 1157, 1158, 1159, 1160, 1161, 1162
*Elset, elset=topGsk_S3, instance=Gasket-1
  254,  255,  256,  257,  258,  259,  260,  261,  262,  263,  264,  447,  448,  449,  450,  903
  904,  905,  906,  907,  908,  913,  914,  915,  947,  948,  949,  988,  989,  990,  991,  998
  999, 1000, 1001, 1109, 1110, 1111, 1112, 1113, 1114, 1150, 1151, 1152, 1153
*Elset, elset=topGsk_S2, instance=Gasket-1
  265,  266,  267,  268,  451,  452,  453,  454,  455,  456,  457,  458,  459,  460,  461,  462
  763,  764,  765,  766,  767,  768,  769,  770,  771,  772,  773,  774,  775,  776,  777,  778
  779,  780,  781,  782,  783,  784,  785,  786,  787,  788,  789,  790,  791,  792,  793,  794
  795,  796,  797,  798,  799,  800,  801,  802,  843,  844,  845,  846,  847,  848,  849,  850
  851,  852,  853,  854,  855,  856,  857,  858,  859,  860,  861,  916,  917,  918,  919,  920
  921,  922,  923,  924,  956,  957,  958,  959,  960,  961,  962,  963,  964,  965,  966,  967
  968, 1002, 1003, 1004, 1005, 1006, 1007, 1008, 1009, 1010, 1011, 1012, 1013, 1014, 1015, 1016
 1017, 1018, 1019, 1020, 1021, 1022, 1023, 1024, 1025, 1026, 1027, 1028, 1029, 1030, 1031, 1032
 1033, 1034, 1035, 1036, 1037, 1038, 1039, 1040, 1041, 1042, 1043, 1044, 1045, 1046, 1119, 1120
 1121, 1122, 1123, 1124, 1125, 1126, 1127, 1128, 1129, 1130, 1163, 1164, 1165, 1166, 1167, 1168
 1169, 1170, 1171, 1172, 1173, 1174, 1175, 1176, 1177, 1178, 1179, 1180, 1181, 1182, 1183, 1184
 1185, 1186, 1187, 1188, 1189, 1190, 1191, 1192, 1193, 1194, 1195, 1196, 1197, 1198, 1199, 1200
 1201, 1202, 1203, 1204, 1205, 1206, 1207, 1208, 1209, 1210, 1211, 1212, 1213, 1214, 1215, 1216
 1217, 1218, 1219, 1220, 1221, 1222, 1223, 1224, 1225, 1226, 1227, 1228, 1229, 1230, 1231, 1232
 1233, 1234, 1235, 1236, 1237, 1238, 1239, 1240, 1241, 1242, 1243, 1244, 1245, 1246, 1247, 1248
 1249, 1250, 1251, 1252, 1253, 1254, 1255, 1256, 1257, 1258, 1259, 1260, 1261, 1262, 1263, 1264
 1265, 1266, 1267, 1268, 1269, 1270, 1271, 1272, 1273, 1274, 1275, 1276, 1277, 1278, 1279, 1280
 1281, 1282, 1283, 1284, 1285, 1286, 1287, 1288, 1289, 1290, 1291, 1292, 1293, 1294, 1295, 1296
 1297, 1298, 1299, 1300, 1301, 1302, 1303, 1304, 1305, 1306, 1307, 1308, 1449, 1450, 1451, 1452
 1453, 1454, 1455, 1456, 1457, 1458, 1459, 1460, 1461, 1462, 1463, 1464, 1465, 1466, 1467, 1468
** ... 10 like lines cut
*Surface, type=ELEMENT, name=topGsk
topGsk_S1, S1
topGsk_S4, S4
topGsk_S2, S2
topGsk_S3, S3
*Surface, name=gasketAll
gasket-1.All,
*Elset, elset=holeTopFlg_S3, instance=topFlange
 480, 481, 482, 483, 484, 485, 496, 497, 527, 528, 615, 621, 622, 623, 722, 723
*Elset, elset=holeTopFlg_S4, instance=topFlange
 486, 487, 488, 493, 525, 526, 537, 538, 539, 540, 545, 546, 547, 548, 616, 617
 720, 721, 727, 728, 729, 730
*Elset, elset=holeTopFlg_S2, instance=topFlange
 627, 628, 629, 630, 631, 632, 735, 736, 737, 738
*Surface, type=ELEMENT, name=holeTopFlg
holeTopFlg_S3, S3
holeTopFlg_S4, S4
holeTopFlg_S2, S2
**
*Elset, elset=topFlgOut_S1, instance=topFlange, generate
 591,  611,    1
*Elset, elset=topFlgOut_S6, instance=topFlange
 269, 272, 275, 278, 281, 284, 287, 290, 293, 296, 299, 302, 305, 308, 311, 314
 317, 320, 323, 326, 329, 332, 335, 338, 341, 344, 347, 350, 832, 835, 838, 841
 844, 847, 850, 853, 856, 859, 862, 865, 868, 871, 874, 877, 880, 883, 886, 889
 892, 895, 898, 901, 904, 907, 910, 913
*Elset, elset=topFlgOut_S4, instance=topFlange
 454, 471, 472, 473, 489, 613, 620, 693, 703, 704, 705, 921
*Elset, elset=topFlgOut_S3, instance=topFlange
 455, 456, 459, 461, 486, 487, 488, 616, 627, 628, 629, 694, 714, 916, 922, 931
 932, 933, 940, 941, 942
*Elset, elset=topFlgOut_S2, instance=topFlange
  463,  464,  467,  468,  492,  493,  522,  523,  524,  525,  526,  527,  528,  529,  530,  633
  634,  635,  715,  716,  717,  718,  719,  720,  721,  722,  723,  724,  725,  726,  745,  746
  747,  748,  749,  750,  751,  752,  753,  754,  755,  756,  757,  758,  759,  760,  761,  762
  763,  764,  765, 1034, 1035, 1036, 1037, 1038, 1039, 1040, 1041, 1042
*Surface, type=ELEMENT, name=topFlgOut
topFlgOut_S1, S1
topFlgOut_S6, S6
topFlgOut_S4, S4
topFlgOut_S2, S2
topFlgOut_S3, S3
**
*Elset, elset=boltHead_S1, instance=Bolt-1
 356, 357, 358, 359, 360, 361, 374, 375, 376, 377, 378, 379
*Elset, elset=boltHead_S4, instance=Bolt-1, generate
 542,  557,    3
*Elset, elset=boltHead_S3, instance=Bolt-1
 196, 197, 198, 205, 206, 207, 558, 559, 560, 567, 568, 569
*Elset, elset=boltHead_S2, instance=Bolt-1, generate
 691,  696,    1
*Surface, type=ELEMENT, name=boltHead
boltHead_S1, S1
boltHead_S4, S4
boltHead_S2, S2
boltHead_S3, S3
**
*Elset, elset=halfBoltHead-1_S5, instance=HalfBolt-1
 290, 291, 296, 297
*Elset, elset=halfBoltHead-1_S2, instance=HalfBolt-1, generate
 49,  52,   1
*Elset, elset=halfBoltHead-1_S4, instance=HalfBolt-1, generate
 190,  205,    3
*Elset, elset=halfBoltHead-1_S1, instance=HalfBolt-1, generate
 375,  380,    1
*Surface, type=ELEMENT, name=halfBoltHead-1
halfBoltHead-1_S5, S5
halfBoltHead-1_S2, S2
halfBoltHead-1_S4, S4
halfBoltHead-1_S1, S1
**
*Elset, elset=topFlg-halfHole-1_S4, instance=topFlange
  919,  920,  934,  935,  936,  937,  938,  939,  940,  941,  942, 1037, 1038, 1049, 1050, 1051
 1052, 1057, 1058, 1059, 1060
*Elset, elset=topFlg-halfHole-1_S3, instance=topFlange
  921, 1039, 1040
*Surface, type=ELEMENT, name=topFlg-halfHole-1
topFlg-halfHole-1_S4, S4
topFlg-halfHole-1_S3, S3
**
*Elset, elset=halfBoltHead-2_S5, instance=HalfBolt-2
 290, 291, 296, 297
*Elset, elset=halfBoltHead-2_S2, instance=HalfBolt-2, generate
 49,  52,   1
*Elset, elset=halfBoltHead-2_S4, instance=HalfBolt-2, generate
 190,  205,    3
*Elset, elset=halfBoltHead-2_S1, instance=HalfBolt-2, generate
 375,  380,    1
*Surface, type=ELEMENT, name=halfBoltHead-2
halfBoltHead-2_S5, S5
halfBoltHead-2_S2, S2
halfBoltHead-2_S4, S4
halfBoltHead-2_S1, S1
**
*Elset, elset=topFlg-halfHole-2_S4, instance=topFlange
 447, 448, 459, 460, 461, 462, 467, 468, 469, 470, 706, 707, 714, 715, 716, 717
*Elset, elset=topFlg-halfHole-2_S3, instance=topFlange
 449, 450, 708, 709, 710, 711, 712, 713
*Surface, type=ELEMENT, name=topFlg-halfHole-2
topFlg-halfHole-2_S4, S4
topFlg-halfHole-2_S3, S3
**
*Elset, elset=gskHole_S4, instance=Gasket-1
  847,  848,  862,  863,  891,  892,  893,  913,  914,  915,  922,  923,  924,  931,  932,  933
  947,  948,  949,  966,  967,  968,  983,  984, 1002, 1003, 1004
*Elset, elset=gskHole_S3, instance=Gasket-1
  849,  850,  851,  878,  879,  880,  894,  895,  896,  934,  935,  936,  985,  986,  987, 1005
 1006,
*Surface, type=ELEMENT, name=gskHole
gskHole_S4, S4
gskHole_S3, S3
**
*Elset, elset=gskHalfHole-1_S4, instance=Gasket-1
 241, 242, 243, 260, 261, 262, 435, 436, 437, 451, 452, 453
*Elset, elset=gskHalfHole-1_S3, instance=Gasket-1
 244, 245, 438, 439, 440, 454, 455, 456
*Elset, elset=gskHalfHole-1_S2, instance=Gasket-1
 263, 264
*Surface, type=ELEMENT, name=gskHalfHole-1
gskHalfHole-1_S4, S4
gskHalfHole-1_S3, S3
gskHalfHole-1_S2, S2
**
*Elset, elset=gskHalfHole-2_S4, instance=Gasket-1
 1097, 1098, 1099, 1125, 1126, 1127, 1145, 1146
*Elset, elset=gskHalfHole-2_S3, instance=Gasket-1
 1100, 1101, 1102, 1128, 1129, 1130, 1147, 1148, 1149, 1160, 1161, 1162, 1163, 1164
*Surface, type=ELEMENT, name=gskHalfHole-2
gskHalfHole-2_S4, S4
gskHalfHole-2_S3, S3
**
*Elset, elset=nutHole_S2, instance=nut-1
 127, 128, 129, 130, 131, 132, 133, 134, 135, 136, 137, 138, 139, 140, 141, 142
 143, 144, 145, 146, 147, 148, 149, 150, 151, 152, 153, 154, 155, 156, 157, 158
 159, 160, 161, 162, 163, 164, 165, 166, 167, 168, 253, 254, 255, 256, 257, 258
 259, 260, 261, 262, 263, 264, 265, 266, 267, 268, 269, 270, 271, 272, 273, 274
 275, 276, 277, 278, 279, 280, 281, 282, 283, 284, 285, 286, 287, 288, 289, 290
 291, 292, 293, 294, 379, 380, 381, 382, 383, 384, 385, 386, 387, 388, 389, 390
 391, 392, 393, 394, 395, 396, 397, 398, 399, 400, 401, 402, 403, 404, 405, 406
 407, 408, 409, 410, 411, 412, 413, 414, 415, 416, 417, 418, 419, 420, 505, 506
 507, 508, 509, 510, 511, 512, 513, 514, 515, 516, 517, 518, 519, 520, 521, 522
 523, 524, 525, 526, 527, 528, 529, 530, 531, 532, 533, 534, 535, 536, 537, 538
 539, 540, 541, 542, 543, 544, 545, 546
*Elset, elset=nutHole_S1, instance=nut-1
  85,  86,  87,  88,  89,  90,  91,  92,  93,  94,  95,  96,  97,  98,  99, 100
 101, 102, 103, 104, 105, 106, 107, 108, 109, 110, 111, 112, 113, 114, 115, 116
 117, 118, 119, 120, 121, 122, 123, 124, 125, 126, 715, 716, 717, 718, 719, 720
 721, 722, 723, 724, 725, 726, 727, 728, 729, 730, 731, 732, 733, 734, 735, 736
 737, 738, 739, 740, 741, 742, 743, 744, 745, 746, 747, 748, 749, 750, 751, 752
 753, 754, 755, 756
*Surface, type=ELEMENT, name=nutHole
nutHole_S2, S2
nutHole_S1, S1
**
*Elset, elset=halfNutHole-1_S1, instance=HalfNut-1
  57,  58,  59,  60,  61,  62,  63,  64,  65,  66,  67,  68,  69,  70,  71,  72
  73,  74,  75,  76,  77,  78,  79,  80,  81,  82,  83,  84, 169, 170, 171, 172
 173, 174, 175, 176, 177, 178, 179, 180, 181, 182, 183, 184, 185, 186, 187, 188
 189, 190, 191, 192, 193, 194, 195, 196, 197, 198, 199, 200, 201, 202, 203, 204
 205, 206, 207, 208, 209, 210, 267, 268, 269, 270, 271, 272, 273, 274, 275, 276
 277, 278, 279, 280, 281, 282, 283, 284, 285, 286, 287, 288, 289, 290, 291, 292
 293, 294, 379, 380, 381, 382, 383, 384, 385, 386, 387, 388, 389, 390, 391, 392
 393, 394, 395, 396, 397, 398, 399, 400, 401, 402, 403, 404, 405, 406, 407, 408
 409, 410, 411, 412, 413, 414, 415, 416, 417, 418, 419, 420
*Surface, type=ELEMENT, name=halfNutHole-1
halfNutHole-1_S1, S1
*Elset, elset=halfNutHole-2_S1, instance=HalfNut-2
  57,  58,  59,  60,  61,  62,  63,  64,  65,  66,  67,  68,  69,  70,  71,  72
  73,  74,  75,  76,  77,  78,  79,  80,  81,  82,  83,  84, 169, 170, 171, 172
 173, 174, 175, 176, 177, 178, 179, 180, 181, 182, 183, 184, 185, 186, 187, 188
 189, 190, 191, 192, 193, 194, 195, 196, 197, 198, 199, 200, 201, 202, 203, 204
 205, 206, 207, 208, 209, 210, 267, 268, 269, 270, 271, 272, 273, 274, 275, 276
 277, 278, 279, 280, 281, 282, 283, 284, 285, 286, 287, 288, 289, 290, 291, 292
 293, 294, 379, 380, 381, 382, 383, 384, 385, 386, 387, 388, 389, 390, 391, 392
 393, 394, 395, 396, 397, 398, 399, 400, 401, 402, 403, 404, 405, 406, 407, 408
 409, 410, 411, 412, 413, 414, 415, 416, 417, 418, 419, 420
*Surface, type=ELEMENT, name=halfNutHole-2
halfNutHole-2_S1, S1
**
*surface, combine = union, name=allNuts
 topNut, topHalfNut-1, topHalfNut-2
*surface, combine = union, name=allBoltHeads
 boltHead, halfBoltHead-1, halfBoltHead-2
*surface, combine = union, name=flangeHoles
 holeTopFlg, holeBotFlg
*surface, combine = union, name=flangeHalfHoles-1
 topFlg-halfHole-1, botFlg-halfHole-1
*surface, combine = union, name=flangeHalfHoles-2
 topFlg-halfHole-2, botFlg-halfHole-2
**
*Node, nset=BoltLoad
      1,           0.,           0.,           0.
*Node, nset=HalfBoltLoad-1
      2,           0.,           0.,           0.
*Node, nset=HalfBoltLoad-2
      3,           0.,           0.,           0.
**
** PRE TENSION SECTIONS
**
**
** TIE CONSTRAINTS
**
**
*End Assembly
** 
** MATERIALS
** 
*Material, name=brass
*Elastic
 1.4935e+07, 0.3
*Plastic
28000.,  0.
30000., 0.1
*Material, name=rubber
*Hyperelastic, mooney-rivlin
556.,    139., 2.8e-05
*Material, name=steel
*Elastic
 3e+07, 0.3
*Plastic
52000.,  0.
65000., 0.1
** 
** INTERACTION PROPERTIES
** 
** 
** INTERACTIONS
** 
** ----------------------------------------------------------------
** 
** STEP
** 
** BOUNDARY CONDITIONS
** 
** LOADS
**  
** OUTPUT REQUESTS
**
*End Step
