*Heading
 Detailed geometry submodel
**
**  This file is to be used in conjuction with the 
**  Submodeling with ABAQUS lecture series. It is an incomplete
**  input file that requires additional user input.
**
** 
*Preprint, echo=NO, model=NO, history=NO, contact=NO
** ----------------------------------------------------------------
** 
** PART INSTANCE: Nozzle-Detailed-1
** 
*Node
      1,   38.5373192,   244.311737,   38.5373192
      2,   44.4593391,   247.294891,   44.4593391
      3,   46.5722504,   244.313004,   46.5722504
      4,   52.1237068,   244.313004,   52.1237068
      5,   53.4824715,   242.403061,   53.4824715
      6,   55.8614349,   242.403061,   55.8614349
      7,   55.8614349,   241.313004,   55.8614349
      8,   40.6579933,   241.313004,   40.6579933
      9,   44.4593391,   220.313004,   44.4593391
     10,    46.580658,   223.313004,    46.580658
     11,   52.1237068,   223.313004,   52.1237068
     12,   53.4824715,   225.222931,   53.4824715
     13,   55.8614349,   225.222931,   55.8614349
     14,   55.8614349,   226.313004,   55.8614349
     15,   40.6586418,   226.313004,   40.6586418
     16,   38.5373192,   223.313004,   38.5373192
     17,   38.5373192,   253.813004,   38.5373192
     18,   48.7940826,   253.813004,   24.2772999
     19,   48.7940826,   213.813004,   24.2772999
     20,   38.5373192,   213.813004,   38.5373192
** ... 10597 like lines cut
*Element, type=C3D20R
  1,  490,  488,  475,  476, 1753, 1751, 1738, 1739, 2885, 2884, 2883, 2882, 2886, 2887, 2888,
     2889, 2891, 2890, 2892, 2893
  2,  481,   30,   29,  474, 1744,  747,  746, 1737, 2897, 2896, 2895, 2894, 2898, 2899, 2900,
     2901, 2903, 2902, 2904, 2905
  3,  486,  475,  488,  487, 1749, 1738, 1751, 1750, 2908, 2884, 2907, 2906, 2909, 2887, 2910,
     2911, 2912, 2892, 2890, 2913
  4,   33,   32,  476,  475,  492,  491, 1739, 1738, 2916, 2915, 2883, 2914, 2917, 2918, 2888,
     2919, 2921, 2920, 2893, 2892
  5,   46,   45,  477,  473,  589,  588, 1740, 1736, 2925, 2924, 2923, 2922, 2926, 2927, 2928,
     2929, 2931, 2930, 2932, 2933
  6,  474,   29,    1,   48, 1737,  746,  185,  731, 2895, 2936, 2935, 2934, 2900, 2937, 2938,
     2939, 2905, 2904, 2940, 2941
  7,   44,   43,  478,  480,  587,  586, 1741, 1743, 2945, 2944, 2943, 2942, 2946, 2947, 2948,
     2949, 2951, 2950, 2952, 2953
  8,    5,    4,  479,  485,  113,   98, 1742, 1748, 2957, 2956, 2955, 2954, 2958, 2959, 2960,
     2961, 2963, 2962, 2964, 2965
  9,    4,   36,  482,  479,   98,  523, 1745, 1742, 2968, 2967, 2966, 2956, 2969, 2970, 2971,
     2959, 2962, 2972, 2973, 2964
 10,    6,   37,   38,    7,  129,  566,  581,  144, 2977, 2976, 2975, 2974, 2978, 2979, 2980,
     2981, 2983, 2982, 2984, 2985
** ... 4038 like lines cut
*Nset, nset=Nozzle-Detailed-1__PickedSet2, generate
     1,  10617,      1
*Elset, elset=Nozzle-Detailed-1__PickedSet2, generate
    1,  2029,     1
** Section: SteelSection
*Solid Section, elset=Nozzle-Detailed-1__PickedSet2, material=Steel
1.,
*System
*Elset, elset=_BoundarySurface_S5
  966,  971,  973,  988,  995, 1000, 1044, 1049, 1064, 1079, 1110, 1115, 1117, 1132, 1139, 1144
 1188, 1193, 1208, 1223, 1254, 1259, 1261, 1276, 1283, 1288, 1332, 1337, 1352, 1367, 1398, 1403
 1405, 1420, 1427, 1432, 1476, 1481, 1496, 1511, 1571, 1572, 1600, 1694, 1695, 1723, 1817, 1818
 1846, 1940, 1941, 1969
*Elset, elset=_BoundarySurface_S4
  984,  997, 1019, 1051, 1052, 1053, 1055, 1059, 1063, 1128, 1141, 1163, 1195, 1196, 1197, 1199
 1203, 1207, 1272, 1285, 1307, 1339, 1340, 1341, 1343, 1347, 1351, 1416, 1429, 1451, 1483, 1484
 1485, 1487, 1491, 1495, 1539, 1541, 1542, 1548, 1549, 1558, 1559, 1563, 1564, 1568, 1571, 1578
 1579, 1590, 1597, 1604, 1611, 1614, 1662, 1664, 1665, 1671, 1672, 1681, 1682, 1686, 1687, 1691
 1694, 1701, 1702, 1713, 1720, 1727, 1734, 1737, 1785, 1787, 1788, 1794, 1795, 1804, 1805, 1809
 1810, 1814, 1817, 1824, 1825, 1836, 1843, 1850, 1857, 1860, 1908, 1910, 1911, 1917, 1918, 1927
 1928, 1932, 1933, 1937, 1940, 1947, 1948, 1959, 1966, 1973, 1980, 1983
*Elset, elset=_BoundarySurface_S6
  990,  994, 1005, 1006, 1013, 1016, 1020, 1040, 1044, 1045, 1047, 1054, 1065, 1134, 1138, 1149
 1150, 1157, 1160, 1164, 1184, 1188, 1189, 1191, 1198, 1209, 1278, 1282, 1293, 1294, 1301, 1304
 1308, 1328, 1332, 1333, 1335, 1342, 1353, 1422, 1426, 1437, 1438, 1445, 1448, 1452, 1472, 1476
 1477, 1479, 1486, 1497, 1540, 1547, 1570, 1573, 1577, 1591, 1593, 1596, 1598, 1599, 1601, 1603
 1605, 1616, 1651, 1663, 1670, 1693, 1696, 1700, 1714, 1716, 1719, 1721, 1722, 1724, 1726, 1728
 1739, 1774, 1786, 1793, 1816, 1819, 1823, 1837, 1839, 1842, 1844, 1845, 1847, 1849, 1851, 1862
 1897, 1909, 1916, 1939, 1942, 1946, 1960, 1962, 1965, 1967, 1968, 1970, 1972, 1974, 1985, 2020
*Elset, elset=_BoundarySurface_S3
  972,  974,  998, 1006, 1050, 1060, 1077, 1116, 1118, 1142, 1150, 1194, 1204, 1221, 1260, 1262
 1286, 1294, 1338, 1348, 1365, 1404, 1406, 1430, 1438, 1482, 1492, 1509, 1567, 1574, 1589, 1598
 1690, 1697, 1712, 1721, 1813, 1820, 1835, 1844, 1936, 1943, 1958, 1967
*Surface, type=ELEMENT, name=BoundarySurface
_BoundarySurface_S5, S5
_BoundarySurface_S4, S4
_BoundarySurface_S6, S6
_BoundarySurface_S3, S3
*Elset, elset=_PressureSurface_S5
   6,  10,  22,  23,  25,  28,  37,  41,  53,  54,  56,  59,  68,  72,  84,  85
  87,  90,  99, 103, 115, 116, 118, 121, 130, 134, 146, 147, 149, 152, 161, 165
 177, 178, 180, 183, 192, 196, 208, 209, 211, 214, 223, 227, 239, 240, 242, 245
 254, 258, 270, 271, 273, 276, 285, 289, 301, 302, 304, 307, 316, 320, 332, 333
 335, 338, 347, 351, 363, 364, 366, 369, 378, 382, 394, 395, 397, 400, 409, 413
 425, 426, 428, 431, 440, 444, 456, 457, 459, 462, 471, 475, 487, 488, 490, 493
 502, 506, 518, 519, 521, 524, 533, 537, 549, 550, 552, 555, 564, 568, 580, 581
 583, 586, 595, 599, 611, 612, 614, 617, 626, 630, 642, 643, 645, 648, 657, 661
 673, 674, 676, 679, 688, 692, 704, 705, 707, 710, 719, 723, 735, 736, 738, 741
 750, 754, 766, 767, 769, 772, 781, 785, 797, 798, 800, 803, 812, 816, 828, 829
 831, 834, 843, 847, 859, 860, 862, 865, 874, 878, 890, 891, 893, 896, 905, 909
 921, 922, 924, 927, 936, 940, 952, 953, 955, 958
*Elset, elset=_PressureSurface_S3
   5,   7,  11,  13,  14,  15,  18,  36,  38,  42,  44,  45,  46,  49,  67,  69
  73,  75,  76,  77,  80,  98, 100, 104, 106, 107, 108, 111, 129, 131, 135, 137
 138, 139, 142, 160, 162, 166, 168, 169, 170, 173, 191, 193, 197, 199, 200, 201
 204, 222, 224, 228, 230, 231, 232, 235, 253, 255, 259, 261, 262, 263, 266, 284
 286, 290, 292, 293, 294, 297, 315, 317, 321, 323, 324, 325, 328, 346, 348, 352
 354, 355, 356, 359, 377, 379, 383, 385, 386, 387, 390, 408, 410, 414, 416, 417
 418, 421, 439, 441, 445, 447, 448, 449, 452, 470, 472, 476, 478, 479, 480, 483
 501, 503, 507, 509, 510, 511, 514, 532, 534, 538, 540, 541, 542, 545, 563, 565
 569, 571, 572, 573, 576, 594, 596, 600, 602, 603, 604, 607, 625, 627, 631, 633
 634, 635, 638, 656, 658, 662, 664, 665, 666, 669, 687, 689, 693, 695, 696, 697
 700, 718, 720, 724, 726, 727, 728, 731, 749, 751, 755, 757, 758, 759, 762, 780
 782, 786, 788, 789, 790, 793, 811, 813, 817, 819, 820, 821, 824, 842, 844, 848
 850, 851, 852, 855, 873, 875, 879, 881, 882, 883, 886, 904, 906, 910, 912, 913
 914, 917, 935, 937, 941, 943, 944, 945, 948
*Elset, elset=_PressureSurface_S1, generate
  962,  1105,     1
*Elset, elset=_PressureSurface_S2, generate
 1907,  2029,     1
*Surface, type=ELEMENT, name=PressureSurface
_PressureSurface_S5, S5
_PressureSurface_S3, S3
_PressureSurface_S2, S2
_PressureSurface_S1, S1
**
**
** 
** MATERIALS
** 
*Material, name=Copper
*Density
 0.324,
*Elastic
 1.8e+07, 0.34
*Material, name=Steel
*Density
 0.284,
*Elastic
 3e+07, 0.28
** ----------------------------------------------------------------
** 
** STEP: Step-1
** 
*Step, name=Step-1
Bolt-up & pressure load
*Static
1., 1., 1e-05, 1.
** 
** LOADS
** 
**
**
** 
** OUTPUT REQUESTS
** 
*Restart, write, frequency=0
** 
** FIELD OUTPUT: F-Output-1
** 
*Output, field, variable=PRESELECT
** 
** HISTORY OUTPUT: H-Output-1
** 
*Output, history, variable=PRESELECT
*End Step
