*Heading
 Lined nozzle submodel
** 
**  This file is to be used in conjuction with the 
**  Submodeling with ABAQUS lecture series. It is an incomplete
**  input file that requires additional user input.
**
*Preprint, echo=NO, model=NO, history=NO, contact=NO
** ----------------------------------------------------------------
** 
** PART INSTANCE: Nozzle-Lined-1
** 
*Node
      1,   56.2923317,   213.813004,   28.0080605
      2,   56.2923317,   253.813004,   28.0080605
      3,   28.0080605,   253.813004,   56.2923317
      4,   28.0080605,   213.813004,   56.2923317
      5,   44.4594078,   223.813004,   44.4594078
      6,   44.4594078,   225.352997,   44.4594078
      7,   48.7941628,   253.813004,   24.2773705
      8,   24.2773705,   253.813004,   48.7941628
      9,   24.2773705,   213.813004,   48.7941628
     10,   48.7941628,   213.813004,   24.2773705
     11,   38.5373917,   225.352997,   38.5373917
     12,   44.4594078,   226.313004,   44.4594078
     13,   38.5373917,   226.313004,   38.5373917
     14,   55.8614349,   225.352997,   55.8614349
     15,   55.8614349,   226.313004,   55.8614349
     16,   55.8614349,   223.813004,   55.8614349
     17,   56.2923317,   215.813004,   28.0080605
     18,   56.2923317,   217.813004,   28.0080605
     19,   56.2923317,   219.813004,   28.0080605
     20,   56.2923317,   221.813004,   28.0080605
** ... 11717 like lines cut
*Element, type=C3D20R
   1,   18,   17,  634,  418,  851,  850, 2291, 2075, 3175, 3174, 3173, 3172, 3176, 3177, 3178,
      3179, 3181, 3180, 3182, 3183
   2,  435,  434,  417,  418, 2092, 2091, 2074, 2075, 3187, 3186, 3185, 3184, 3188, 3189, 3190,
      3191, 3193, 3192, 3194, 3183
   3,  434,  640,  416,  417, 2091, 2297, 2073, 2074, 3197, 3196, 3195, 3186, 3198, 3199, 3200,
      3189, 3192, 3201, 3202, 3194
   4,  640,  433,  415,  416, 2297, 2090, 2072, 2073, 3205, 3204, 3203, 3196, 3206, 3207, 3208,
      3199, 3201, 3209, 3210, 3202
   5,  433,  432,  414,  415, 2090, 2089, 2071, 2072, 3213, 3212, 3211, 3204, 3214, 3215, 3216,
      3207, 3209, 3217, 3218, 3210
   6,  432,  431,  413,  414, 2089, 2088, 2070, 2071, 3221, 3220, 3219, 3212, 3222, 3223, 3224,
      3215, 3217, 3225, 3226, 3218
   7,  431,  430,  412,  413, 2088, 2087, 2069, 2070, 3229, 3228, 3227, 3220, 3230, 3231, 3232,
      3223, 3225, 3233, 3234, 3226
   8,  429,  411,  412,  430, 2086, 2068, 2069, 2087, 3237, 3236, 3228, 3235, 3238, 3239, 3231,
      3240, 3242, 3241, 3234, 3233
   9,  429,  428,  410,  411, 2086, 2085, 2067, 2068, 3245, 3244, 3243, 3237, 3246, 3247, 3248,
      3238, 3242, 3249, 3250, 3241
  10,  427,  409,  410,  428, 2084, 2066, 2067, 2085, 3253, 3252, 3244, 3251, 3254, 3255, 3247,
      3256, 3258, 3257, 3250, 3249
** ... 4532 like lines cut
*Nset, nset=Nozzle-Lined-1__PickedSet2
     1,     2,     3,     4,     5,     6,     7,     8,     9,    10,    11,    14,    16,    17,    18,    19
    20,    21,    22,    23,    24,    25,    26,    27,    28,    29,    30,    31,    32,    33,    34,    35
    36,    37,    38,    39,    40,    41,    42,    43,    44,    45,    46,    47,    48,    49,    50,    51
    52,    53,    54,    55,    56,    57,    58,    59,    60,    61,    62,    63,    64,    65,    66,    67
    68,    69,    70,    71,    72,    73,    74,    75,    76,    77,    78,    79,    80,    81,    82,    83
    84,    85,    86,    87,    88,    89,    90,    91,    92,    93,    94,    95,    96,    97,    98,    99
   100,   101,   102,   103,   104,   105,   106,   107,   108,   109,   110,   111,   112,   113,   114,   115
   116,   117,   118,   119,   120,   121,   122,   123,   124,   125,   126,   127,   128,   129,   130,   131
   132,   133,   134,   135,   136,   137,   138,   139,   140,   141,   142,   143,   144,   145,   146,   147
   148,   149,   150,   151,   152,   153,   154,   155,   156,   157,   158,   159,   160,   161,   162,   163
   164,   165,   166,   167,   168,   169,   170,   171,   172,   173,   174,   175,   176,   177,   178,   179
   180,   181,   182,   183,   184,   185,   186,   187,   188,   189,   190,   191,   192,   193,   194,   195
   196,   197,   198,   199,   200,   201,   202,   203,   204,   205,   206,   207,   208,   209,   210,   211
   212,   213,   214,   215,   216,   217,   218,   219,   220,   221,   222,   223,   224,   225,   226,   227
   228,   229,   230,   231,   232,   233,   234,   235,   236,   237,   238,   239,   240,   241,   242,   243
   244,   245,   246,   247,   248,   249,   250,   251,   252,   253,   254,   255,   256,   257,   258,   259
   260,   261,   262,   263,   264,   265,   312,   313,   314,   315,   316,   317,   318,   319,   320,   321
   322,   323,   324,   325,   326,   327,   328,   329,   330,   331,   332,   333,   334,   335,   336,   337
   338,   362,   363,   364,   365,   366,   367,   368,   369,   370,   371,   372,   373,   374,   375,   376
   377,   378,   379,   380,   381,   382,   383,   384,   385,   386,   387,   388,   389,   390,   391,   392
** ... 594 like lines cut
*Elset, elset=Nozzle-Lined-1__PickedSet2
    1,    2,    3,    4,    5,    6,    7,    8,    9,   10,   11,   12,   13,   14,   15,   16
   17,   18,   19,   20,   21,   22,   23,   24,   25,   26,   27,   28,   29,   30,   31,   32
   33,   34,   35,   36,   37,   38,   39,   40,   41,   42,   43,   44,   45,   46,   47,   48
   49,   50,   51,   52,   53,   54,   55,   56,   57,   58,   59,   60,   61,   62,   63,   64
   65,   66,   67,   68,   69,   70,   71,   72,   73,   74,   75,   76,   77,   78,   79,   80
   81,   82,   83,   84,   85,   86,   87,   88,   89,   90,   91,   92,   93,   94,   95,   96
   97,   98,   99,  100,  101,  102,  103,  104,  105,  106,  107,  108,  109,  110,  111,  112
  113,  114,  115,  116,  117,  118,  119,  120,  121,  122,  123,  124,  125,  126,  127,  128
  129,  130,  131,  132,  133,  134,  135,  136,  137,  138,  139,  140,  141,  142,  143,  144
  145,  146,  147,  148,  149,  150,  151,  152,  153,  154,  155,  156,  157,  158,  159,  160
  161,  162,  163,  164,  165,  166,  167,  168,  169,  170,  171,  172,  173,  174,  175,  176
  177,  178,  179,  180,  181,  182,  183,  184,  185,  186,  187,  188,  189,  190,  191,  192
  193,  194,  195,  196,  197,  198,  199,  200,  201,  202,  203,  204,  205,  206,  207,  208
  209,  210,  211,  212,  213,  214,  215,  216,  217,  218,  219,  220,  221,  222,  223,  224
  225,  226,  227,  228,  229,  230,  231,  232,  233,  234,  235,  236,  237,  238,  239,  240
  241,  242,  243,  244,  245,  246,  247,  248,  249,  250,  251,  252,  253,  254,  255,  256
  257,  258,  259,  260,  261,  262,  263,  264,  265,  266,  267,  268,  269,  270,  271,  272
  273,  274,  275,  276,  277,  278,  279,  280,  281,  282,  283,  284,  285,  286,  287,  288
  289,  290,  291,  292,  293,  294,  295,  296,  297,  298,  299,  300,  301,  302,  303,  304
  305,  306,  307,  308,  309,  310,  311,  312,  313,  314,  315,  316,  317,  318,  319,  320
** ... 93 like lines cut
*Nset, nset=Nozzle-Lined-1__PickedSet3
     6,    11,    12,    13,    14,    15,   124,   125,   126,   127,   128,   129,   130,   131,   132,   133
   134,   135,   136,   137,   138,   139,   140,   141,   142,   143,   144,   145,   146,   147,   148,   149
   150,   239,   240,   241,   242,   243,   244,   245,   246,   247,   248,   249,   250,   251,   252,   253
   254,   255,   256,   257,   258,   259,   260,   261,   262,   263,   264,   265,   266,   267,   268,   269
   270,   271,   272,   273,   274,   275,   276,   277,   278,   279,   280,   281,   282,   283,   284,   285
   286,   287,   288,   289,   290,   291,   292,   293,   294,   295,   296,   297,   298,   299,   300,   301
   302,   303,   304,   305,   306,   307,   308,   309,   310,   311,   312,   313,   314,   315,   316,   317
   318,   319,   320,   321,   322,   323,   324,   325,   326,   327,   328,   329,   330,   331,   332,   333
   334,   335,   336,   337,   338,   339,   340,   341,   342,   343,   344,   345,   346,   347,   348,   349
   350,   351,   352,   353,   354,   355,   356,   357,   358,   359,   360,   361,   907,   908,   909,   910
   911,   912,   913,   914,   915,   916,   917,   918,   919,   920,   921,   922,   923,   924,   925,   926
   927,   928,   929,   930,   931,   932,   933,   934,   935,   936,   937,   938,   939,   940,   941,   942
   943,   944,   945,   946,   947,   948,   949,   950,   951,   952,   953,   954,   955,   956,   957,   958
   959,   960,   961,   962,   963,   964,   965,   966,   967,   968,   969,   970,   971,   972,   973,   974
   975,   976,   977,   978,   979,   980,   981,   982,   983,   984,   985,   986,   987,   988,   989,   990
  1309,  1310,  1311,  1312,  1313,  1314,  1315,  1316,  1317,  1318,  1319,  1320,  1321,  1322,  1323,  1324
  1325,  1326,  1327,  1328,  1329,  1330,  1331,  1332,  1333,  1334,  1335,  1336,  1337,  1338,  1339,  1340
  1341,  1342,  1343,  1344,  1345,  1346,  1347,  1348,  1349,  1350,  1351,  1352,  1353,  1354,  1355,  1356
  1357,  1358,  1359,  1360,  1361,  1362,  1363,  1364,  1365,  1366,  1367,  1368,  1369,  1370,  1371,  1372
  1373,  1374,  1375,  1376,  1377,  1378,  1379,  1380,  1381,  1382,  1383,  1384,  1385,  1386,  1387,  1388
** ... 167 like lines cut
*Elset, elset=Nozzle-Lined-1__PickedSet3, generate
 1489,  1956,     1
** Section: SteelSection
*Solid Section, elset=Nozzle-Lined-1__PickedSet2, material=Steel
1.,
** Section: CopperSection
*Solid Section, elset=Nozzle-Lined-1__PickedSet3, material=Copper
1.,
*System
*Elset, elset=_BoundarySurface_S6
   49,   63,   64,   70,   78,   81,   88,   96,  103,  114,  119,  126,  127,  142,  152,  153
  155,  181,  182,  185,  194,  247,  248,  308,  311,  421,  435,  436,  442,  450,  453,  460
  468,  475,  486,  491,  498,  499,  514,  524,  525,  527,  553,  554,  557,  566,  619,  620
  680,  683,  793,  807,  808,  814,  822,  825,  832,  840,  847,  858,  863,  870,  871,  886
  896,  897,  899,  925,  926,  929,  938,  991,  992, 1052, 1055, 1165, 1179, 1180, 1186, 1194
 1197, 1204, 1212, 1219, 1230, 1235, 1242, 1243, 1258, 1268, 1269, 1271, 1297, 1298, 1301, 1310
 1363, 1364, 1424, 1427
*Elset, elset=_BoundarySurface_S4
   19,   20,   21,   32,   48,   54,   58,   71,   72,   73,   79,   80,   92,   93,   97,  100
  101,  104,  128,  129,  140,  143,  154,  156,  159,  166,  173,  183,  184,  304,  318,  322
  391,  392,  393,  404,  420,  426,  430,  443,  444,  445,  451,  452,  464,  465,  469,  472
  473,  476,  500,  501,  512,  515,  526,  528,  531,  538,  545,  555,  556,  676,  690,  694
  763,  764,  765,  776,  792,  798,  802,  815,  816,  817,  823,  824,  836,  837,  841,  844
  845,  848,  872,  873,  884,  887,  898,  900,  903,  910,  917,  927,  928, 1048, 1062, 1066
 1135, 1136, 1137, 1148, 1164, 1170, 1174, 1187, 1188, 1189, 1195, 1196, 1208, 1209, 1213, 1216
 1217, 1220, 1244, 1245, 1256, 1259, 1270, 1272, 1275, 1282, 1289, 1299, 1300, 1420, 1434, 1438
*Elset, elset=_BoundarySurface_S3
    1,   34,   35,   36,   37,   38,   40,   41,   42,   44,   45,   46,   47,   99,  142,  249
  250,  322,  373,  406,  407,  408,  409,  410,  412,  413,  414,  416,  417,  418,  419,  471
  514,  621,  622,  694,  745,  778,  779,  780,  781,  782,  784,  785,  786,  788,  789,  790
  791,  843,  886,  993,  994, 1066, 1117, 1150, 1151, 1152, 1153, 1154, 1156, 1157, 1158, 1160
 1161, 1162, 1163, 1215, 1258, 1365, 1366, 1438
*Elset, elset=_BoundarySurface_S5
   33,   39,   43,   48,  100,  405,  411,  415,  420,  472,  777,  783,  787,  792,  844, 1149
 1155, 1159, 1164, 1216
*Surface, type=ELEMENT, name=BoundarySurface
_BoundarySurface_S6, S6
_BoundarySurface_S4, S4
_BoundarySurface_S3, S3
_BoundarySurface_S5, S5
*Elset, elset=_PressureSurface_S2, generate
 1117,  1488,     1
*Elset, elset=_PressureSurface_S6
 1489, 1491, 1495, 1503, 1504, 1511, 1525, 1527, 1528, 1530, 1534, 1542, 1543, 1550, 1564, 1566
 1567, 1569, 1573, 1581, 1582, 1589, 1603, 1605, 1606, 1608, 1612, 1620, 1621, 1628, 1642, 1644
 1645, 1647, 1651, 1659, 1660, 1667, 1681, 1683, 1684, 1686, 1690, 1698, 1699, 1706, 1720, 1722
 1723, 1725, 1729, 1737, 1738, 1745, 1759, 1761, 1762, 1764, 1768, 1776, 1777, 1784, 1798, 1800
 1801, 1803, 1807, 1815, 1816, 1823, 1837, 1839, 1840, 1842, 1846, 1854, 1855, 1862, 1876, 1878
 1879, 1881, 1885, 1893, 1894, 1901, 1915, 1917, 1918, 1920, 1924, 1932, 1933, 1940, 1954, 1956
*Elset, elset=_PressureSurface_S4
 1490, 1505, 1521, 1529, 1544, 1560, 1568, 1583, 1599, 1607, 1622, 1638, 1646, 1661, 1677, 1685
 1700, 1716, 1724, 1739, 1755, 1763, 1778, 1794, 1802, 1817, 1833, 1841, 1856, 1872, 1880, 1895
 1911, 1919, 1934, 1950
*Elset, elset=_PressureSurface_S5
 1492, 1498, 1499, 1500, 1509, 1513, 1517, 1523, 1524, 1531, 1537, 1538, 1539, 1548, 1552, 1556
 1562, 1563, 1570, 1576, 1577, 1578, 1587, 1591, 1595, 1601, 1602, 1609, 1615, 1616, 1617, 1626
 1630, 1634, 1640, 1641, 1648, 1654, 1655, 1656, 1665, 1669, 1673, 1679, 1680, 1687, 1693, 1694
 1695, 1704, 1708, 1712, 1718, 1719, 1726, 1732, 1733, 1734, 1743, 1747, 1751, 1757, 1758, 1765
 1771, 1772, 1773, 1782, 1786, 1790, 1796, 1797, 1804, 1810, 1811, 1812, 1821, 1825, 1829, 1835
 1836, 1843, 1849, 1850, 1851, 1860, 1864, 1868, 1874, 1875, 1882, 1888, 1889, 1890, 1899, 1903
 1907, 1913, 1914, 1921, 1927, 1928, 1929, 1938, 1942, 1946, 1952, 1953
*Elset, elset=_PressureSurface_S3
 1506, 1507, 1508, 1520, 1545, 1546, 1547, 1559, 1584, 1585, 1586, 1598, 1623, 1624, 1625, 1637
 1662, 1663, 1664, 1676, 1701, 1702, 1703, 1715, 1740, 1741, 1742, 1754, 1779, 1780, 1781, 1793
 1818, 1819, 1820, 1832, 1857, 1858, 1859, 1871, 1896, 1897, 1898, 1910, 1935, 1936, 1937, 1949
*Elset, elset=_PressureSurface_S1, generate
 1606,  1644,     1
*Surface, type=ELEMENT, name=PressureSurface
_PressureSurface_S2, S2
_PressureSurface_S6, S6
_PressureSurface_S4, S4
_PressureSurface_S5, S5
_PressureSurface_S3, S3
_PressureSurface_S1, S1
**
**
**
** 
** MATERIALS
** 
*Material, name=Copper
*Density
 0.324,
*Elastic
 1.8e+07, 0.34
*Material, name=Steel
*Density
 0.284,
*Elastic
 3e+07, 0.28
** ----------------------------------------------------------------
** 
** STEP: Step-1
** 
*Step, name=Step-1
Bolt-up & pressure load
*Static
1., 1., 1e-05, 1.
** 
** LOADS
** 
**
**
** 
** OUTPUT REQUESTS
** 
*Restart, write, frequency=0
** 
** FIELD OUTPUT: F-Output-1
** 
*Output, field, variable=PRESELECT
** 
** HISTORY OUTPUT: H-Output-1
** 
*Output, history, variable=PRESELECT
*End Step
