*Heading
 Basic geometry submodel
** 
**  This file is to be used in conjuction with the 
**  Submodeling with ABAQUS lecture series. It is an incomplete
**  input file that requires additional user input.
**
*Preprint, echo=NO, model=NO, history=NO, contact=NO
** ----------------------------------------------------------------
** 
** PART INSTANCE: Nozzle-Basic-1
** 
*Node
      1,   38.5373917,   223.813004,   38.5373917
      2,   48.7941628,   253.813004,   24.2773705
      3,   48.7941628,   213.813004,   24.2773705
      4,   24.2773705,   213.813004,   48.7941628
      5,   24.2773705,   253.813004,   48.7941628
      6,   44.4594078,   223.813004,   44.4594078
      7,   56.2923317,   213.813004,   28.0080605
      8,   28.0080605,   213.813004,   56.2923317
      9,   28.0080605,   253.813004,   56.2923317
     10,   56.2923317,   253.813004,   28.0080605
     11,   44.4594078,   226.313004,   44.4594078
     12,   38.5373917,   226.313004,   38.5373917
     13,   55.8614349,   223.813004,   55.8614349
     14,   55.8614349,   226.313004,   55.8614349
     15,   39.8947182,    224.00589,   37.1304779
     16,   41.1515121,   224.576263,   35.7325325
     17,   42.2671432,   225.500443,   34.4056587
     18,   43.2117043,    226.74202,    33.211586
     19,   43.9644241,   228.254257,   32.2085457
     20,   44.5112648,   229.981277,   31.4484997
** ... 10202 like lines cut
*Element, type=C3D20R
   1,  464,  463,   59,   58, 1828, 1827,  837,  836, 2780, 2779, 2778, 2777, 2781, 2782, 2783,
      2784, 2786, 2785, 2787, 2788
   2,  482,  481,  463,  464, 1846, 1845, 1827, 1828, 2791, 2790, 2780, 2789, 2792, 2793, 2781,
      2794, 2796, 2795, 2785, 2786
   3,  483,  374,  556,  482, 1847, 1738, 1920, 1846, 2800, 2799, 2798, 2797, 2801, 2802, 2803,
      2804, 2806, 2805, 2807, 2796
   4,   21,   20,  375,  374,  579,  578, 1739, 1738, 2811, 2810, 2809, 2808, 2812, 2813, 2814,
      2815, 2817, 2816, 2818, 2805
   5,  483,  364,   21,  374, 1847, 1728,  579, 1738, 2820, 2819, 2808, 2800, 2821, 2822, 2815,
      2801, 2806, 2823, 2817, 2805
   6,  373,   22,   21,  364, 1737,  580,  579, 1728, 2826, 2825, 2819, 2824, 2827, 2828, 2822,
      2829, 2831, 2830, 2817, 2823
   7,  483,  484,  485,  364, 1847, 1848, 1849, 1728, 2834, 2833, 2832, 2820, 2835, 2836, 2837,
      2821, 2806, 2838, 2839, 2823
   8,  484,  466,  467,  485, 1848, 1830, 1831, 1849, 2842, 2841, 2840, 2833, 2843, 2844, 2845,
      2836, 2838, 2846, 2847, 2839
   9,  468,  467,   55,   54, 1832, 1831,  834,  833, 2851, 2850, 2849, 2848, 2852, 2853, 2854,
      2855, 2856, 2847, 2857, 2858
  10,   56,   55,  467,  466,  835,  834, 1831, 1830, 2860, 2850, 2841, 2859, 2861, 2853, 2844,
      2862, 2863, 2857, 2847, 2846
** ... 3868 like lines cut
*Nset, nset=Nozzle-Basic-1__PickedSet2, generate
     1,  10222,      1
*Elset, elset=Nozzle-Basic-1__PickedSet2, generate
    1,  1944,     1
** Section: SteelSection
*Solid Section, elset=Nozzle-Basic-1__PickedSet2, material=Steel
1.,
*System
*Elset, elset=_BoundarySurface_S4
   22,   23,   24,   37,   59,   61,  103,  105,  111,  112,  165,  169,  170,  173,  177,  178
  189,  202,  203,  205,  206,  208,  209,  211,  212,  274,  275,  276,  277,  316,  317,  318
  331,  353,  355,  397,  399,  405,  406,  459,  463,  464,  467,  471,  472,  483,  496,  497
  499,  500,  502,  503,  505,  506,  568,  569,  570,  571,  610,  611,  612,  625,  647,  649
  691,  693,  699,  700,  753,  757,  758,  761,  765,  766,  777,  790,  791,  793,  794,  796
  797,  799,  800,  862,  863,  864,  865,  904,  905,  906,  919,  941,  943,  985,  987,  993
  994, 1047, 1051, 1052, 1055, 1059, 1060, 1071, 1084, 1085, 1087, 1088, 1090, 1091, 1093, 1094
 1156, 1157, 1158, 1159
*Elset, elset=_BoundarySurface_S6
   36,   60,   94,   95,   96,  104,  110,  145,  160,  179,  182,  185,  186,  188,  201,  204
  207,  210,  213,  235,  273,  330,  354,  388,  389,  390,  398,  404,  439,  454,  473,  476
  479,  480,  482,  495,  498,  501,  504,  507,  529,  567,  624,  648,  682,  683,  684,  692
  698,  733,  748,  767,  770,  773,  774,  776,  789,  792,  795,  798,  801,  823,  861,  918
  942,  976,  977,  978,  986,  992, 1027, 1042, 1061, 1064, 1067, 1068, 1070, 1083, 1086, 1089
 1092, 1095, 1117, 1155
*Elset, elset=_BoundarySurface_S5
    1,    9,   22,   32,   39,   88,   93,  145,  154,  185,  295,  303,  316,  326,  333,  382
  387,  439,  448,  479,  589,  597,  610,  620,  627,  676,  681,  733,  742,  773,  883,  891
  904,  914,  921,  970,  975, 1027, 1036, 1067
*Elset, elset=_BoundarySurface_S3
   10,   11,   20,   21,   29,   30,   31,   38,   40,   41,  147,  148,  150,  156,  184,  201
  304,  305,  314,  315,  323,  324,  325,  332,  334,  335,  441,  442,  444,  450,  478,  495
  598,  599,  608,  609,  617,  618,  619,  626,  628,  629,  735,  736,  738,  744,  772,  789
  892,  893,  902,  903,  911,  912,  913,  920,  922,  923, 1029, 1030, 1032, 1038, 1066, 1083
*Surface, type=ELEMENT, name=BoundarySurface
_BoundarySurface_S4, S4
_BoundarySurface_S6, S6
_BoundarySurface_S5, S5
_BoundarySurface_S3, S3
*Elset, elset=_PressureSurface_S1
    1,    2,    3,    4,    5,    6,    7,    8,    9,   10,   11,   12,   13,   14,   15,   16
   17,   18,   19,   20,   21,   22,   23,   24,   25,   26,   27,   28,   29,   30,   31,   32
   33,   34,   35,   36,   37,   38,   39,   40,   41,   42,   43,   44,   45,   46,   47,   48
   49,   50,   51,   52,   53,   54,   55,   56,   57,   58,   59,   60,   61,   62,   63,   64
   65,   66,   67,   68,   69,   70,   71,   72,   73,   74,   75,   76,   77,   78,   79,   80
   81,   82,   83,   84,   85,   86,   87,   88,   89,   90,   91,   92,   93,   94,   95,   96
   97,   98,   99,  100,  101,  102,  103,  104,  105,  106,  107,  108,  109,  110,  111,  112
  113,  114,  115,  116,  117,  118,  119,  120,  121,  122,  123,  124,  125,  126,  127,  128
  129,  130,  131,  132,  133,  134,  135,  136,  137,  138,  139,  140,  141,  142,  143,  144
  145,  146,  147,  148,  149,  150,  151,  152,  153,  154,  155,  156,  157,  158,  159,  160
  161,  162,  163,  164,  165,  166,  167,  168,  169,  170,  171,  172,  173,  174,  175,  176
  177,  178,  179,  180,  181,  182,  183,  184,  185,  186,  187,  188,  189,  190,  191,  192
  193,  194,  195,  196,  197,  198,  199,  200,  201,  202,  203,  204,  205,  206,  207,  208
  209,  210,  211,  212,  213,  214,  215,  216,  217,  218,  219,  220,  221,  222,  223,  224
  225,  226,  227,  228,  229,  230,  231,  232,  233,  234,  235,  236,  237,  238,  239,  240
  241,  242,  243,  244,  245,  246,  247,  248,  249,  250,  251,  252,  253,  254,  255,  256
  257,  258,  259,  260,  261,  262,  263,  264,  265,  266,  267,  268,  269,  270,  271,  272
  273,  274,  275,  276,  277,  278,  279,  280,  281,  282,  283,  284,  285,  286,  287,  288
  289,  290,  291,  292,  293,  294, 1369, 1370, 1371, 1372, 1373, 1374, 1375, 1376, 1377, 1378
 1379, 1380, 1381, 1382, 1383, 1384, 1385, 1386, 1387, 1388, 1389, 1390, 1391, 1392, 1393, 1394
 1395, 1396, 1397, 1398, 1399, 1400, 1401, 1402, 1403, 1404, 1405, 1406, 1407, 1408, 1409, 1410
 1411, 1412, 1413, 1414, 1415, 1416, 1417, 1418, 1419, 1420, 1421, 1422, 1423, 1424, 1425, 1426
 1427, 1428, 1429, 1430, 1431, 1432
*Elset, elset=_PressureSurface_S5
 1177, 1184, 1195, 1207, 1241, 1248, 1259, 1271, 1305, 1312, 1323, 1335, 1369, 1376, 1387, 1399
 1433, 1440, 1451, 1463, 1497, 1504, 1515, 1527, 1561, 1568, 1579, 1591, 1625, 1632, 1643, 1655
 1689, 1696, 1707, 1719, 1753, 1760, 1771, 1783, 1817, 1824, 1835, 1847, 1881, 1888, 1899, 1911
*Elset, elset=_PressureSurface_S3
 1178, 1192, 1213, 1214, 1227, 1230, 1232, 1242, 1256, 1277, 1278, 1291, 1294, 1296, 1306, 1320
 1341, 1342, 1355, 1358, 1360, 1370, 1384, 1405, 1406, 1419, 1422, 1424, 1434, 1448, 1469, 1470
 1483, 1486, 1488, 1498, 1512, 1533, 1534, 1547, 1550, 1552, 1562, 1576, 1597, 1598, 1611, 1614
 1616, 1626, 1640, 1661, 1662, 1675, 1678, 1680, 1690, 1704, 1725, 1726, 1739, 1742, 1744, 1754
 1768, 1789, 1790, 1803, 1806, 1808, 1818, 1832, 1853, 1854, 1867, 1870, 1872, 1882, 1896, 1917
 1918, 1931, 1934, 1936
*Elset, elset=_PressureSurface_S6
 1179, 1180, 1189, 1210, 1239, 1243, 1244, 1253, 1274, 1303, 1307, 1308, 1317, 1338, 1367, 1371
 1372, 1381, 1402, 1431, 1435, 1436, 1445, 1466, 1495, 1499, 1500, 1509, 1530, 1559, 1563, 1564
 1573, 1594, 1623, 1627, 1628, 1637, 1658, 1687, 1691, 1692, 1701, 1722, 1751, 1755, 1756, 1765
 1786, 1815, 1819, 1820, 1829, 1850, 1879, 1883, 1884, 1893, 1914, 1943
*Elset, elset=_PressureSurface_S4
 1190, 1191, 1196, 1200, 1205, 1219, 1224, 1240, 1254, 1255, 1260, 1264, 1269, 1283, 1288, 1304
 1318, 1319, 1324, 1328, 1333, 1347, 1352, 1368, 1382, 1383, 1388, 1392, 1397, 1411, 1416, 1432
 1446, 1447, 1452, 1456, 1461, 1475, 1480, 1496, 1510, 1511, 1516, 1520, 1525, 1539, 1544, 1560
 1574, 1575, 1580, 1584, 1589, 1603, 1608, 1624, 1638, 1639, 1644, 1648, 1653, 1667, 1672, 1688
 1702, 1703, 1708, 1712, 1717, 1731, 1736, 1752, 1766, 1767, 1772, 1776, 1781, 1795, 1800, 1816
 1830, 1831, 1836, 1840, 1845, 1859, 1864, 1880, 1894, 1895, 1900, 1904, 1909, 1923, 1928, 1944
*Surface, type=ELEMENT, name=PressureSurface
_PressureSurface_S1, S1
_PressureSurface_S5, S5
_PressureSurface_S6, S6
_PressureSurface_S4, S4
_PressureSurface_S3, S3
**
**
**
** 
** MATERIALS
** 
*Material, name=Copper
*Density
 0.324,
*Elastic
 1.8e+07, 0.34
*Material, name=Steel
*Density
 0.284,
*Elastic
 3e+07, 0.28
** ----------------------------------------------------------------
** 
** STEP: Step-1
** 
*Step, name=Step-1
Bolt-up & pressure load
*Static
1., 1., 1e-05, 1.
** 
** LOADS
** 
**
** 
** OUTPUT REQUESTS
** 
*Restart, write, frequency=0
** 
** FIELD OUTPUT: F-Output-1
** 
*Output, field, variable=PRESELECT
** 
** HISTORY OUTPUT: H-Output-1
** 
*Output, history, variable=PRESELECT
*End Step
