*heading
disk forging - isothermal - frictionless - rigid surface
note: incomplete input file for use with contact in abaqus/standard
      lecture series. not to be used as an example problem.
********************
*restart, write, freq=5
********************
**
** blank definition
**
*node, nset=blank
      1,           0.,           0.
      2, 0.00400000019,           0.
      3, 0.00800000038,           0.
      4, 0.0120000001,           0.
      5, 0.0160000008,           0.
      6, 0.0199999996,           0.
      7, 0.0240000002,           0.
      8, 0.0280000009,           0.
      9, 0.0320000015,           0.
     10, 0.0359999985,           0.
     11, 0.0399999991,           0.
     12, 0.0439999998,           0.
     13, 0.0480000004,           0.
     14, 0.0520000011,           0.
     15, 0.0560000017,           0.
     16, 0.0599999987,           0.
     17,  0.064000003,           0.
     18, 0.0680000037,           0.
     19, 0.0719999969,           0.
     20, 0.0759999976,           0.
** ... 169 like lines cut
*nset, nset=axis, generate
   1,  169,   21
*nset, nset=bottom, generate
  1,  21,   1
*element, type=cax4, elset=blank
  1,   1,   2,  23,  22
  2,   2,   3,  24,  23
  3,   3,   4,  25,  24
  4,   4,   5,  26,  25
  5,   5,   6,  27,  26
  6,   6,   7,  28,  27
  7,   7,   8,  29,  28
  8,   8,   9,  30,  29
  9,   9,  10,  31,  30
 10,  10,  11,  32,  31
 11,  11,  12,  33,  32
 12,  12,  13,  34,  33
 13,  13,  14,  35,  34
 14,  14,  15,  36,  35
 15,  15,  16,  37,  36
 16,  16,  17,  38,  37
 17,  17,  18,  39,  38
 18,  18,  19,  40,  39
 19,  19,  20,  41,  40
 20,  20,  21,  42,  41
** ... 139 like lines cut
*element, type=cax3, elset=blank
160, 167, 189, 188
161, 189, 167, 168
*elset, elset=blank-top-side, generate
  20,  160,   20
 141,  159,    1
 161,  161,    1
*solid section, elset=blank, material=plastic
*material, name=plastic
*elastic
200.e9, 0.3
*plastic
7.e8,     0.00
2.9989e9, 9.9965 
********************
**
** die definition
**
*node
3001, 0.04, 0.06
*nset, nset=die
3001, 
********************
**
** enter the *rigid body and *surface options with all appropriate parameters.
**
********************
start,  0.1500,  0.02500
line,   0.1100,  0.02500
line,   0.1100,  0.04525
line,   0.0795,  0.04525
circl,  0.0660,  0.03175  ,  0.066,  0.04525
line,  -0.0100,  0.03175
********************
**
** fill in contact definition here
**
********************
**
** boundary conditions
**
*boundary
die, 1
die, 6
axis, 1
bottom, 2
********************
**
** step definition
**
*step, inc=200, nlgeom
*static
1.e-2, 1.0,  , 0.1
*boundary
die,2, ,-0.02223
*print, contact=yes
*contact file
*contact print
*el print, elset=blank, freq=10
s, mises
e, peeq
*node print, freq=5
u, rf
*node file, freq=2, nset=die
u, rf
*output, field, frequency=10, variable=preselect
*output, history, frequency=1
*node output, nset=die
u,rf
*end step
