*Heading
** Job name: crushDome Model name: rubberdome
**
** PARTS
**
*Part, name=dome
*End Part
*Part, name=floor
*End Part
**
** ASSEMBLY
**
*Assembly, name=Assembly
**  
*Instance, name=dome-1, part=dome
*Node
      1,      7.01726,           0.
      2,      7.01726,          0.1
      3,      6.65347,           0.
      4,      7.01726,          0.2
      5,      6.65347,          0.2
      6,      7.01726,          0.4
      7,      7.01726,          0.6
      8,       6.6614,          0.6
      9,      7.01726,          0.7
     10,      7.01726,          0.8
     11,       6.6614,          0.8
     12,      7.01726,           1.
     13,       6.6614,           1.
     14,      7.01726,          0.9
     15,      6.28968,           0.
     16,      6.28968,          0.1
     17,      6.28968,          0.2
     18,      6.29761,          0.4
     19,      6.30553,          0.6
     20,      6.30553,          0.7
** ... 1789 like lines cut
*Element, type=CAX4H, elset=dome
  3,   17,   15,    1,    4
  4,   17,    4,    7,   19
  5,   21,   19,    7,   10
  6,   22,   21,   10,   12
  7,   34,   25,   15,   17
  8,   34,   17,   19,   36
  9,   38,   36,   19,   21
 10,   39,   38,   21,   22
 11,   25,   34,   41,   31
 12,   47,   41,   34,   36
 13,   49,   47,   36,   38
 14,   50,   49,   38,   39
 15,  375,  376,   47,   49
 16,  371,  375,   49,   50
 17,  373,  375,  371,  372
 18,  373,  374,  376,  375
 19,  367,  366,  376,  374
 20,  369,  372,  371,  370
 21,  368,  367,  374,  373
 22,  368,  373,  372,  369
** ... 506 like lines cut
** Section: solidSection
*Solid Section, elset=dome, material=rubber
1.,
*End Instance
**  
*Instance, name=floor-1, part=floor
*Node
      1,           0.,           0.
*Nset, nset=floor-1-RefPt_, internal
 1,
*Surface, type=SEGMENTS, name=rigid
START,           0.,           0.
 LINE,         4.75,           0.
*Rigid Body, ref node=floor-1-RefPt_, analytical surface=rigid
*End Instance
*Nset, nset=fix, instance=dome-1
  1,  2,  4,  6,  7,  9, 10, 12, 14
*Nset, nset=symm, instance=dome-1
  128,  130,  131,  133,  135, 1045, 1047, 1049, 1052, 1056, 1060
*Nset, nset=refPt, instance=floor-1
 1,
*Nset, nset=monitor, instance=dome-1
 52,
*Elset, elset=press_S3, instance=dome-1
 197, 206, 214, 217, 218, 221, 223, 224, 226, 229, 231
*Surface, type=ELEMENT, name=press
press_S3, S3
*Elset, elset=inside_S1, instance=dome-1
  12,  23,  27,  31,  35,  39,  43,  47,  51,  55,  59,  63,  67,  71,  75,  79
  83,  87,  91,  95,  99, 103, 107, 111, 115, 119, 123, 127, 131, 135, 139, 143
 147, 151, 155, 159, 163, 167, 171, 232, 234, 237, 238, 245, 266, 285, 304, 318
 326, 332, 338, 344, 350, 356, 362
*Elset, elset=inside_S2, instance=dome-1
   3,   7,  15,  19, 175, 179, 183, 187, 198, 207, 232, 240, 243, 245, 246, 260
 267, 279, 286, 287, 288, 289, 368, 374, 380, 386, 392, 398, 404, 410, 416, 422
 428, 434, 440, 446, 452, 458, 464, 470, 476, 482, 488, 494, 500, 506, 521, 522
 529, 539, 548
*Elset, elset=inside_S3, instance=dome-1
  11, 513, 521
*Elset, elset=inside_S4, instance=dome-1
 11,
*Surface, type=ELEMENT, name=inside
inside_S1, S1
inside_S2, S2
inside_S4, S4
inside_S3, S3
*End Assembly
** 
** MATERIALS
** 
*Material, name=rubber
*Density
 0.001,
*Hyperelastic
500000.,111200.,     0.
** 
** INTERACTION PROPERTIES
** 
*Surface Interaction, name=noFric
1.,
*Friction
0.,
** 
** BOUNDARY CONDITIONS
** 
** Name: fixDome Type: Symmetry/Antisymmetry/Encastre
*Boundary
fix, ENCASTRE
** Name: fixRigid Type: Symmetry/Antisymmetry/Encastre
*Boundary
refPt, ENCASTRE
** Name: symm Type: Symmetry/Antisymmetry/Encastre
*Boundary
symm, XSYMM
** 
** INTERACTIONS
** 
** Interaction: Int-1
*Contact Pair, interaction=noFric
inside, floor-1.rigid
** ----------------------------------------------------------------
** 
** STEP: Step-1
** 
*Step, name=Step-1, nlgeom, inc=100
compress dome
*Static, riks
0.2, 1., 1e-05, 1.0, , monitor, 2, -3.7
*Dsload
press, P, 10000.
*Monitor, dof=2, node=monitor, frequency=1
*Output, field, var=preselect
*Output, history, var=preselect, freq=0
*End Step
