*Heading
**
** PARTS
**
*Part, name=drum
*Node
         1, -10.0           ,   0.0           ,  300.0
    999999, -10.0           ,   0.0           ,  300.0
       101,  43.72214761192 ,  93.136828813005,  227.03411627595
       102,  62.283881373272,  85.059125780026,  195.08824217951
       103,  50.57726474868 ,  33.425403583224,  215.11221115933
       104,  27.572337421351,  35.099562236259,  254.9269255441 
       105,  16.045249062576,  35.695122412264,  274.88844977242
       106,  19.017192603161,  56.998579376236,  269.74114100662
       107,  62.587271127486,  50.174795505631,  194.43904127912
       108,  51.682646771738,  52.179863234864,  213.21445498706
       109,  592.99067368748,  -0.23067403539 ,  366.60113098587
       110,  722.77367301642,  -0.34573909438 ,  550.35166886739
       111,  720.07254574829,  26.032124653839,  553.45714575969
       112,  716.32103405688,  51.696774699095,  559.64053715382
       113,  682.18470723839,  130.42392361968,  619.07705333449
       114,  650.56868274122,  -0.279743043958,  448.29883243559
       115,  598.69006732882,  182.0448159314 ,  583.48709195156
       116,  16.132369931621,  99.606380120209,  254.74121654934
       117,  89.055607916221,  138.01649184064,  159.71747525259
       118,  604.36220932553,  190.52502202026,  582.52266026899
** ... 5437 like lines cut
*Element, type=S3R, elset=drum
       174,       834,      1022,       754
       189,       419,       325,       257
       271,       831,       490,       936
       301,       580,       960,       584
       308,       474,       467,       461
       329,       392,       385,       384
       359,       698,       362,       406
       380,       341,       380,       464
       399,       404,       355,       233
       483,       977,      1011,      1028
       562,       688,       683,       664
       616,       688,       520,       488
       618,       143,       678,      1188
       655,       834,       857,       836
       741,       920,       695,       617
       756,       947,      1003,       915
       791,       910,       272,       940
      1066,       808,      5405,       759
      1067,       808,       724,      5448
      1070,      5457,       807,       719
** ... 186 like lines cut
*Element, type=S4R, elset=drum
       101,       726,       712,       595,       757
       102,       757,       595,       594,       783
       103,       721,       726,       757,       788
       104,       788,       757,       783,       772
       105,       725,       187,       137,       765
       106,       765,       137,       198,       817
       107,       817,       198,       124,       727
       108,       762,       785,       787,       804
       109,       785,       725,       765,       787
       110,       793,       797,       791,       764
       111,       764,       791,       804,       787
       112,       727,       793,       764,       817
       113,       817,       764,       787,       765
       114,      1013,       884,       199,       758
       115,       758,       199,       192,       779
       116,       779,       192,       187,       725
       117,       980,       893,       784,       720
       118,       893,      1013,       758,       784
       119,       785,       762,       790,       786
       120,       786,       790,       720,       784
** ... 5330 like lines cut
*Elset, elset=inner
       101,       102,       103,       104,       105,       106,       107,       108,
       109,       110,       111,       112,       113,       114,       115,       116,
       117,       118,       119,       120,       121,       122,       123,       124,
       125,       126,       127,       128,       129,       130,       131,       132,
       133,       134,       135,       136,       137,       138,       139,       140,
       141,       142,       143,       144,       145,       146,       147,       148,
       149,       150,       151,       152,       153,       154,       163,       165,
       169,       172,       174,       198,       200,       204,       207,       209,
       264,       266,       267,       270,       271,       272,       273,       274,
       275,       276,       277,       278,       279,       280,       281,       282,
       283,       284,       285,       286,       287,       288,       289,       290,
       291,       292,       293,       294,       295,       296,       297,       298,
       299,       300,       301,       302,       303,       304,       305,       324,
       326,       328,       384,       386,       388,       398,       400,       402,
       404,       467,       468,       469,       470,       471,       472,       473,
       474,       475,       477,       478,       480,       482,       483,       484,
       485,       486,       487,       488,       489,       490,       491,       492,
       493,       494,       495,       496,       497,       498,       499,       500,
       501,       502,       503,       504,       505,       506,       507,       509,
       510,       511,       512,       513,       515,       516,       517,       518,
** ... 363 like lines cut
**
*Shell Section, elset=drum, material=mat1
0.5,
*End Part
**
*Part, name=particles
**
** generator surfaces
**
*Node, nset=inlet
   9001,   152.578033,  -221.990005,   251.736633
   9002,   152.578033,  -41.8100014,   251.736633
   9003,   464.347168,  -41.8100014,   431.736633
   9004,   464.347168,  -221.990005,   431.736633
   9005,   484.403198,   24.0214672,   437.692444
   9006,   484.403198,   228.225464,   437.692444
   9007,   151.849426,   228.225464,   245.692474
   9008,   151.849426,   24.0214672,   245.692474
*Element, type=SFM3D4R, elset=inlet1
      9001,      9001,      9002,      9003,      9004
*Element, type=SFM3D4R, elset=inlet2
      9002,      9005,      9008,      9007,      9006
**
*Surface section, elset=inlet1
*Surface section, elset=inlet2
**
*Surface, type=ELEMENT, name=inlet1
inlet1, spos
*Surface, type=ELEMENT, name=inlet2
inlet2, spos
*End Part
**
** ASSEMBLY
**
*Assembly, name=Assembly
**  
*Instance, name=drum-1, part=drum
*End Instance
*Instance, name=particles-1, part=particles
*End Instance
*Orientation, name=oriConn
-0.4045694, -0.5876094, 0.70074154,  0.29380683,  -0.8091447,  -0.5088835
*Element, type=CONN3D2, elset=conn
1,drum-1.999999,drum-1.1
*Connector Section, elset=conn
cardan,
oriConn,
*Nset,nset=rig, instance=drum-1
1,
*Nset, nset=fix, instance=drum-1
999999,
**
*Transform, type=R, nset=rig
-0.4045694, -0.5876094, 0.70074154,  0.29380683,  -0.8091447,  -0.5088835
**
*Rigid Body, ref node=rig, elset=drum-1.drum
**
*Surface, name=drum
drum-1.inner, spos
**
*End Assembly
**
*Material, name=mat1
*Density
7.85e-09
*Elastic
2.08e+05,0.3
**
*Boundary
rig,1,3
fix,1,6
**
*Step
particle generation,  gravity settling, rotation
**
*Dynamic, Explicit, direct user control
5e-6, 1.3
**
*Connector Motion, type=VELOCITY
conn,4, 0.0
conn,5, 0.0
conn,6,-1.0
**
*Output, history, frequency=1
*Element Output, elset=conn
CRM1,CRM2,CRM3,CVR1,CVR2,CVR3
**
*Output, Field, number interval=10
*Node Output
u,v
**
*End Step
**
