*Heading
** Job name: link-part Model name: torque-link-component
** Generated by: Abaqus/CAE 6.12-1
** *Preprint, echo=NO, model=NO, history=NO, contact=NO
**
** PARTS
**
*Part, name=LINK
*Node
      1,  -422.191925,  -113.125984,       -162.5
      2,  -422.191925,  -113.125984,        -225.
      3,  -401.177094,  -191.554413,        -225.
      4,  -401.177094,  -191.554413,       -162.5
      5,   -453.88855,  -121.619072,       -162.5
      6,   -453.88855,  -121.619072,        -225.
      7,   -489.80957,  -183.836105,       -162.5
      8,  -479.948578,  -220.637878,       -162.5
      9,   -489.80957,  -183.836105,        -225.
     10,  -479.948578,  -220.637878,        -225.
     11,  -443.206757,  -34.6975517,       -162.5
     12,  -443.206757,  -34.6975517,        -225.
     13,  -525.966614,  -48.8962708,       -162.5
     14,  -516.105591,  -85.6980438,       -162.5
     15,  -525.966614,  -48.8962708,        -225.
     16,  -516.105591,  -85.6980438,        -225.
     17,   -453.88855,  -121.619072,         225.
     18,   -453.88855,  -121.619072,        162.5
     19,   -489.80957,  -183.836105,        162.5
     20,   -489.80957,  -183.836105,         225.
** ... 3810 like lines cut
*Element, type=C3D8R
   1,  856,  101,  851, 2607,   97,    1,  100,  847
   2, 2607,  851,  852, 2604,  847,  100,   99,  848
   3,  857,  102,  853, 2603,  856,  101,  851, 2607
   4, 2603,  853,  854, 2602, 2607,  851,  852, 2604
   5,  860,  861, 2611, 2609,  104,  103,  850,  849
   6,  861,  106,  858, 2611,  103,    2,   98,  850
   7, 2609, 2611, 2607, 2604,  849,  850,  847,  848
   8, 2611,  858,  856, 2607,  850,   98,   97,  847
   9,  862,  863, 2608, 2605,  860,  861, 2611, 2609
  10,  863,  105,  859, 2608,  861,  106,  858, 2611
  11, 2605, 2608, 2603, 2602, 2609, 2611, 2607, 2604
  12, 2608,  859,  857, 2603, 2611,  858,  856, 2607
  13,  865,  866, 2609, 2604,  108,  107,  849,  848
  14,  866,  109,  860, 2609,  107,    3,  104,  849
  15,  867,  868, 2605, 2602,  865,  866, 2609, 2604
  16,  868,  110,  862, 2605,  866,  109,  860, 2609
  17,  852,  112,  865, 2604,   99,    4,  108,  848
  18,  854,  113,  867, 2602,  852,  112,  865, 2604
  19,  871,  117,  853, 2603,  115,    5,  102,  857
  20,  872,  118,  854, 2602,  871,  117,  853, 2603
** ... 2830 like lines cut
*Nset, nset=LINK, generate
    1,  3830,     1
*Elset, elset=LINK, generate
    1,  2850,     1
*Elset, elset=_SURF-1_S1, internal
 2425, 2426, 2427, 2428, 2429, 2430, 2431, 2432, 2433, 2434, 2435, 2436, 2545, 2546, 2547, 2548
 2549, 2550, 2551, 2552, 2553, 2554, 2555, 2556
*Elset, elset=_SURF-1_S4, internal
   21,   22,   23,   24,   55,   56,   63,   64,  133,  134,  135,  136, 2324, 2326, 2328, 2330
 2332, 2334, 2336, 2338, 2340, 2342, 2344, 2346, 2348, 2350, 2352
*Elset, elset=_SURF-1_S3, internal
  19,  20,  25,  26,  57,  58,  59,  60,  69,  70,  71,  72, 137, 138
*Elset, elset=_SURF-1_S2, internal
  29,  30,  31,  32,  73,  74,  75,  76,  77,  78,  79,  80,  81,  82,  83,  84
 139, 140, 141, 142, 143, 144
*Elset, elset=_SURF-1_S6, internal, generate
 2629,  2651,     2
*Elset, elset=_SURF-2_S1, internal
 2461, 2462, 2463, 2464, 2465, 2466, 2467, 2468, 2469, 2470, 2471, 2472, 2473, 2474, 2475, 2476
 2477, 2478, 2479, 2480, 2481, 2482, 2483, 2484, 2509, 2510, 2511, 2512, 2513, 2514, 2515, 2516
 2517, 2518, 2519, 2520, 2521, 2522, 2523, 2524, 2525, 2526, 2527, 2528, 2529, 2530, 2531, 2532
*Elset, elset=_SURF-2_S4, internal
 2353, 2354, 2355, 2557, 2558, 2559, 2560, 2561, 2562
*Elset, elset=_SURF-2_S3, internal
 2356, 2357, 2358, 2563, 2564, 2565, 2566, 2567, 2568
*Elset, elset=_SURF-2_S2, internal
 2365, 2366, 2367, 2368, 2369, 2370, 2371, 2372, 2373, 2374, 2375, 2376, 2581, 2582, 2583, 2584
 2585, 2586, 2587, 2588, 2589, 2590, 2591, 2592
*Elset, elset=_SURF-1_S1_1, internal
 2425, 2426, 2427, 2428, 2429, 2430, 2431, 2432, 2433, 2434, 2435, 2436, 2545, 2546, 2547, 2548
 2549, 2550, 2551, 2552, 2553, 2554, 2555, 2556
*Elset, elset=_SURF-1_S4_1, internal
   21,   22,   23,   24,   55,   56,   63,   64,  133,  134,  135,  136, 2324, 2326, 2328, 2330
 2332, 2334, 2336, 2338, 2340, 2342, 2344, 2346, 2348, 2350, 2352
*Elset, elset=_SURF-1_S2_1, internal
  29,  30,  31,  32,  73,  74,  75,  76,  77,  78,  79,  80,  81,  82,  83,  84
 139, 140, 141, 142, 143, 144
*Elset, elset=_SURF-1_S6_1, internal, generate
 2629,  2651,     2
*Elset, elset=_SURF-1_S3_1, internal
  19,  20,  25,  26,  57,  58,  59,  60,  69,  70,  71,  72, 137, 138
*Elset, elset=_SURF-2_S1_1, internal
 2461, 2462, 2463, 2464, 2465, 2466, 2467, 2468, 2469, 2470, 2471, 2472, 2473, 2474, 2475, 2476
 2477, 2478, 2479, 2480, 2481, 2482, 2483, 2484, 2509, 2510, 2511, 2512, 2513, 2514, 2515, 2516
 2517, 2518, 2519, 2520, 2521, 2522, 2523, 2524, 2525, 2526, 2527, 2528, 2529, 2530, 2531, 2532
*Elset, elset=_SURF-2_S4_1, internal
 2353, 2354, 2355, 2557, 2558, 2559, 2560, 2561, 2562
*Elset, elset=_SURF-2_S2_1, internal
 2365, 2366, 2367, 2368, 2369, 2370, 2371, 2372, 2373, 2374, 2375, 2376, 2581, 2582, 2583, 2584
 2585, 2586, 2587, 2588, 2589, 2590, 2591, 2592
*Elset, elset=_SURF-2_S3_1, internal
 2356, 2357, 2358, 2563, 2564, 2565, 2566, 2567, 2568
*Elset, elset=_SURF-1_S1_2, internal
 2425, 2426, 2427, 2428, 2429, 2430, 2431, 2432, 2433, 2434, 2435, 2436, 2545, 2546, 2547, 2548
 2549, 2550, 2551, 2552, 2553, 2554, 2555, 2556
*Elset, elset=_SURF-1_S4_2, internal
   21,   22,   23,   24,   55,   56,   63,   64,  133,  134,  135,  136, 2324, 2326, 2328, 2330
 2332, 2334, 2336, 2338, 2340, 2342, 2344, 2346, 2348, 2350, 2352
*Elset, elset=_SURF-1_S2_2, internal
  29,  30,  31,  32,  73,  74,  75,  76,  77,  78,  79,  80,  81,  82,  83,  84
 139, 140, 141, 142, 143, 144
*Elset, elset=_SURF-1_S6_2, internal, generate
 2629,  2651,     2
*Elset, elset=_SURF-1_S3_2, internal
  19,  20,  25,  26,  57,  58,  59,  60,  69,  70,  71,  72, 137, 138
*Elset, elset=_SURF-2_S1_2, internal
 2461, 2462, 2463, 2464, 2465, 2466, 2467, 2468, 2469, 2470, 2471, 2472, 2473, 2474, 2475, 2476
 2477, 2478, 2479, 2480, 2481, 2482, 2483, 2484, 2509, 2510, 2511, 2512, 2513, 2514, 2515, 2516
 2517, 2518, 2519, 2520, 2521, 2522, 2523, 2524, 2525, 2526, 2527, 2528, 2529, 2530, 2531, 2532
*Elset, elset=_SURF-2_S4_2, internal
 2353, 2354, 2355, 2557, 2558, 2559, 2560, 2561, 2562
*Elset, elset=_SURF-2_S2_2, internal
 2365, 2366, 2367, 2368, 2369, 2370, 2371, 2372, 2373, 2374, 2375, 2376, 2581, 2582, 2583, 2584
 2585, 2586, 2587, 2588, 2589, 2590, 2591, 2592
*Elset, elset=_SURF-2_S3_2, internal
 2356, 2357, 2358, 2563, 2564, 2565, 2566, 2567, 2568
*Elset, elset=_SURF-1_S1_3, internal
 2425, 2426, 2427, 2428, 2429, 2430, 2431, 2432, 2433, 2434, 2435, 2436, 2545, 2546, 2547, 2548
 2549, 2550, 2551, 2552, 2553, 2554, 2555, 2556
*Elset, elset=_SURF-1_S4_3, internal
   21,   22,   23,   24,   55,   56,   63,   64,  133,  134,  135,  136, 2324, 2326, 2328, 2330
 2332, 2334, 2336, 2338, 2340, 2342, 2344, 2346, 2348, 2350, 2352
*Elset, elset=_SURF-1_S2_3, internal
  29,  30,  31,  32,  73,  74,  75,  76,  77,  78,  79,  80,  81,  82,  83,  84
 139, 140, 141, 142, 143, 144
*Elset, elset=_SURF-1_S6_3, internal, generate
 2629,  2651,     2
*Elset, elset=_SURF-1_S3_3, internal
  19,  20,  25,  26,  57,  58,  59,  60,  69,  70,  71,  72, 137, 138
*Elset, elset=_SURF-2_S1_3, internal
 2461, 2462, 2463, 2464, 2465, 2466, 2467, 2468, 2469, 2470, 2471, 2472, 2473, 2474, 2475, 2476
 2477, 2478, 2479, 2480, 2481, 2482, 2483, 2484, 2509, 2510, 2511, 2512, 2513, 2514, 2515, 2516
 2517, 2518, 2519, 2520, 2521, 2522, 2523, 2524, 2525, 2526, 2527, 2528, 2529, 2530, 2531, 2532
*Elset, elset=_SURF-2_S4_3, internal
 2353, 2354, 2355, 2557, 2558, 2559, 2560, 2561, 2562
*Elset, elset=_SURF-2_S2_3, internal
 2365, 2366, 2367, 2368, 2369, 2370, 2371, 2372, 2373, 2374, 2375, 2376, 2581, 2582, 2583, 2584
 2585, 2586, 2587, 2588, 2589, 2590, 2591, 2592
*Elset, elset=_SURF-2_S3_3, internal
 2356, 2357, 2358, 2563, 2564, 2565, 2566, 2567, 2568
*Elset, elset=_SURF-1_S1_4, internal
 2425, 2426, 2427, 2428, 2429, 2430, 2431, 2432, 2433, 2434, 2435, 2436, 2545, 2546, 2547, 2548
 2549, 2550, 2551, 2552, 2553, 2554, 2555, 2556
*Elset, elset=_SURF-1_S4_4, internal
   21,   22,   23,   24,   55,   56,   63,   64,  133,  134,  135,  136, 2324, 2326, 2328, 2330
 2332, 2334, 2336, 2338, 2340, 2342, 2344, 2346, 2348, 2350, 2352
*Elset, elset=_SURF-1_S2_4, internal
  29,  30,  31,  32,  73,  74,  75,  76,  77,  78,  79,  80,  81,  82,  83,  84
 139, 140, 141, 142, 143, 144
*Elset, elset=_SURF-1_S6_4, internal, generate
 2629,  2651,     2
*Elset, elset=_SURF-1_S3_4, internal
  19,  20,  25,  26,  57,  58,  59,  60,  69,  70,  71,  72, 137, 138
*Surface, type=ELEMENT, name=SURF-1
_SURF-1_S1_4, S1
_SURF-1_S4_4, S4
_SURF-1_S2_4, S2
_SURF-1_S6_4, S6
_SURF-1_S3_4, S3
*Elset, elset=_SURF-2_S1_4, internal
 2461, 2462, 2463, 2464, 2465, 2466, 2467, 2468, 2469, 2470, 2471, 2472, 2473, 2474, 2475, 2476
 2477, 2478, 2479, 2480, 2481, 2482, 2483, 2484, 2509, 2510, 2511, 2512, 2513, 2514, 2515, 2516
 2517, 2518, 2519, 2520, 2521, 2522, 2523, 2524, 2525, 2526, 2527, 2528, 2529, 2530, 2531, 2532
*Elset, elset=_SURF-2_S4_4, internal
 2353, 2354, 2355, 2557, 2558, 2559, 2560, 2561, 2562
*Elset, elset=_SURF-2_S2_4, internal
 2365, 2366, 2367, 2368, 2369, 2370, 2371, 2372, 2373, 2374, 2375, 2376, 2581, 2582, 2583, 2584
 2585, 2586, 2587, 2588, 2589, 2590, 2591, 2592
*Elset, elset=_SURF-2_S3_4, internal
 2356, 2357, 2358, 2563, 2564, 2565, 2566, 2567, 2568
*Surface, type=ELEMENT, name=SURF-2
_SURF-2_S1_4, S1
_SURF-2_S4_4, S4
_SURF-2_S2_4, S2
_SURF-2_S3_4, S3
** Section: Section-1-LINK
*Solid Section, elset=LINK, material=TITANIUM
,
*End Part
**  
**
** ASSEMBLY
**
*Assembly, name=Assembly
**  
*Instance, name=LINK-1, part=LINK
*End Instance
**  
*Node
      1,  -502.957581,  -134.767075,           0.
      2,  2.93456964e-07,  -2.207031e-07,        63.75
*Nset, nset=RP1
 1,
*Nset, nset=RP2
 2,
*Elset, elset=OPTIMIZE-REGION, instance=LINK-1, generate
    1,  2850,     1
*Elset, elset=FROZEN-REGION, instance=LINK-1
    1,    2,    3,    4,    5,    6,    7,    8,    9,   10,   11,   12,   13,   14,   15,   16
   17,   18,   19,   20,   21,   22,   23,   24,   25,   26,   27,   28,   29,   30,   31,   32
   33,   34,   35,   36,   37,   38,   39,   40,   41,   42,   43,   44,   45,   46,   47,   48
   49,   50,   51,   52,   53,   54,   55,   56,   57,   58,   59,   60,   61,   62,   63,   64
   65,   66,   67,   68,   69,   70,   71,   72,   73,   74,   75,   76,   77,   78,   79,   80
   81,   82,   83,   84,   85,   86,   87,   88,   89,   90,   91,   92,   93,   94,   95,   96
   97,   98,   99,  100,  101,  102,  103,  104,  105,  106,  107,  108,  109,  110,  111,  112
  113,  114,  115,  116,  117,  118,  119,  120,  121,  122,  123,  124,  125,  126,  127,  128
  129,  130,  131,  132,  133,  134,  135,  136,  137,  138,  139,  140,  141,  142,  143,  144
 2323, 2324, 2325, 2326, 2327, 2328, 2329, 2330, 2331, 2332, 2333, 2334, 2335, 2336, 2337, 2338
 2339, 2340, 2341, 2342, 2343, 2344, 2345, 2346, 2347, 2348, 2349, 2350, 2351, 2352, 2353, 2354
 2355, 2356, 2357, 2358, 2359, 2360, 2361, 2362, 2363, 2364, 2365, 2366, 2367, 2368, 2369, 2370
 2371, 2372, 2373, 2374, 2375, 2376, 2377, 2378, 2379, 2380, 2381, 2382, 2383, 2384, 2385, 2386
 2387, 2388, 2389, 2390, 2391, 2392, 2393, 2394, 2395, 2396, 2397, 2398, 2399, 2400, 2401, 2402
 2403, 2404, 2405, 2406, 2407, 2408, 2409, 2410, 2411, 2412, 2413, 2414, 2415, 2416, 2417, 2418
 2419, 2420, 2421, 2422, 2423, 2424, 2425, 2426, 2427, 2428, 2429, 2430, 2431, 2432, 2433, 2434
 2435, 2436, 2437, 2438, 2439, 2440, 2441, 2442, 2443, 2444, 2445, 2446, 2447, 2448, 2449, 2450
 2451, 2452, 2453, 2454, 2455, 2456, 2457, 2458, 2459, 2460, 2461, 2462, 2463, 2464, 2465, 2466
 2467, 2468, 2469, 2470, 2471, 2472, 2473, 2474, 2475, 2476, 2477, 2478, 2479, 2480, 2481, 2482
 2483, 2484, 2485, 2486, 2487, 2488, 2489, 2490, 2491, 2492, 2493, 2494, 2495, 2496, 2497, 2498
** ... 10 like lines cut
*Nset, nset=POINT-ON-CENTRAL-PLANE, instance=LINK-1
 73,
*Orientation, name=PULL-DIRECTION-CSYS
0.965925775331622, 0.258819235278226,           0., -0.258819235278226, 0.965925775331622,           0.
1, 0.
** Constraint: CONSTRAINT-1
*Coupling, constraint name=CONSTRAINT-1, ref node=RP1, surface=LINK-1.SURF-1
*Kinematic
** Constraint: CONSTRAINT-2
*Coupling, constraint name=CONSTRAINT-2, ref node=RP2, surface=LINK-1.SURF-2
*Kinematic
*End Assembly
** 
** MATERIALS
** 
**     Density 4.46e-9 tonne/mm3; Elastic 114e3 MPa; Poisson 0.34; Exp Coeff
**   9.5e-6
** 
**     (mm/mm) / C
** 
*Material, name=TITANIUM
*Elastic
114000., 0.34
** 
** BOUNDARY CONDITIONS
** 
** Name: Disp-BC-1 Type: Displacement/Rotation
*Boundary
RP2, 1, 1
** Name: Disp-BC-2 Type: Displacement/Rotation
*Boundary
RP2, 2, 2
** Name: Disp-BC-3 Type: Displacement/Rotation
*Boundary
RP2, 3, 3
** Name: Disp-BC-4 Type: Displacement/Rotation
*Boundary
RP2, 4, 4
** Name: Disp-BC-5 Type: Displacement/Rotation
*Boundary
RP2, 5, 5
** Name: Disp-BC-6 Type: Displacement/Rotation
*Boundary
RP2, 6, 6
** Name: Disp-BC-7 Type: Displacement/Rotation
*Boundary
RP1, 2, 2
** Name: Disp-BC-8 Type: Displacement/Rotation
*Boundary
RP1, 3, 3
** ----------------------------------------------------------------
** 
** STEP: Step-1-TURNING
** 
*Step, name=Step-1-TURNING, nlgeom=YES, inc=10000
*Static
1., 1., 1e-20, 1.
** 
** LOADS
** 
** Name: CFORCE-1   Type: Concentrated force
*Cload, op=NEW
RP1, 1, 333615.
** Name: CFORCE-2   Type: Moment
*Cload, op=NEW
RP1, 4, -1.69475e+08
** Name: CFORCE-3   Type: Moment
*Cload, op=NEW
RP1, 5, 6.2705e+06
** 
** CONTROLS
** 
*Controls, reset
*Controls, parameters=time incrementation
, , , , , , , 20, , , 
** 
** OUTPUT REQUESTS
** 
*Restart, write, frequency=0
** 
** FIELD OUTPUT: F-Output-1
** 
*Output, field, frequency=99999
*Element Output, directions=YES
LE, S
** 
** FIELD OUTPUT: F-Output-2
** 
*Node Output
RF, U
** 
** HISTORY OUTPUT: H-Output-1
** 
*Output, history, variable=PRESELECT, frequency=99999
*End Step
** ----------------------------------------------------------------
** 
** STEP: Step-2-BRAKING
** 
*Step, name=Step-2-BRAKING, nlgeom=YES, inc=10000
*Static
1., 1., 1e-20, 1.
** 
** LOADS
** 
** Name: CFORCE-NEW
*Cload, op=NEW
** Name: CFORCE-1   Type: Concentrated force
*Cload, op=NEW
RP1, 1, 311375.
** Name: CFORCE-2   Type: Moment
*Cload, op=NEW
RP1, 6, 7.5415e+07
** 
** CONTROLS
** 
*Controls, reset
*Controls, parameters=time incrementation
, , , , , , , 20, , , 
** 
** OUTPUT REQUESTS
** 
*Restart, write, frequency=0
** 
** FIELD OUTPUT: F-Output-3
** 
*Output, field, frequency=99999
*Element Output, directions=YES
LE, S
** 
** FIELD OUTPUT: F-Output-4
** 
*Node Output
RF, U
** 
** HISTORY OUTPUT: H-Output-2
** 
*Output, history, variable=PRESELECT, frequency=99999
*End Step
