*Heading
***************************************************************************************
******************** Dynamic fracture using 3D hexagonal elements *********************
***************************************************************************************
** Job name: Test_3D_hexa Model name: Model-1-blocks
** Generated by: Abaqus/CAE 6.14-5
*Preprint, echo=NO, model=NO, history=NO, contact=NO
**
** PARTS
**
***************************************************************
** Definition of the nodes and the elements
***************************************************************
*Part, name=Block
** ------------------ Nodes ------------------------
*Node
      1,           0., 0.0199999996,           0.
      2,           0.,           0.,           0.
      3, -0.0500000007, 9.99999997e-07,           0.
      4, -0.0500000007, 0.0199999996,           0.
      5, 0.0500000007, 0.0199999996,           0.
      6, 0.0500000007, -0.0199999996,           0.
      7,           0., -0.0199999996,           0.
      8, -0.0500000007, -0.0199999996,           0.
      9, -0.0500000007, -9.99999997e-07,           0.
     10,           0., 0.0180000011,           0.
     11,           0., 0.0160000026,           0.
     12,           0., 0.0140000042,           0.
     13,           0., 0.0120000076,           0.
     14,           0., 0.0100000091,           0.
     15,           0., 0.00800001062,           0.
     16,           0., 0.00600001309,           0.
     17,           0., 0.00400001463,           0.
     18, -8.73114914e-10, 0.00200001406,           0.
     19, -0.00200002035, 4.00004083e-08,           0.
     20, -0.0040000286, 8.00005679e-08,           0.
** ... 15324 like lines cut
****************************************************************
** ---------------- Element type definition ------------------
*********************** HEXAGONAL ***************************
** ---------------- Displacement ----------------
*User element, nodes=8, type=U2, properties=10, coordinates=3, VARIABLES=344
1,2,3
** ---------------- Phase-field ----------------
*User element, nodes=8, type=U4, properties=3, coordinates=3, VARIABLES=24
4
***************************************************************
** ---------------- Element definition ------------------
***************************************************************
** ---------------- Displacement ----------------
*Element, type=U2
1, 75,  209,   10,    1, 1171, 1305, 1106, 1097
2, 209,  210,   11,   10, 1305, 1306, 1107, 1106
3, 210,  211,   12,   11, 1306, 1307, 1108, 1107
4, 211,  212,   13,   12, 1307, 1308, 1109, 1108
5, 212,  213,   14,   13, 1308, 1309, 1110, 1109
6, 213,  214,   15,   14, 1309, 1310, 1111, 1110
7, 214,  215,   16,   15, 1310, 1311, 1112, 1111
8, 215,  216,   17,   16, 1311, 1312, 1113, 1112
9, 216,  217,   18,   17, 1312, 1313, 1114, 1113
10, 217,   19,    2,   18, 1313, 1115, 1098, 1114
11, 74,  218,  209,   75, 1170, 1314, 1305, 1171
12, 218,  219,  210,  209, 1314, 1315, 1306, 1305
13, 219,  220,  211,  210, 1315, 1316, 1307, 1306
14, 220,  221,  212,  211, 1316, 1317, 1308, 1307
15, 221,  222,  213,  212, 1317, 1318, 1309, 1308
16, 222,  223,  214,  213, 1318, 1319, 1310, 1309
17, 223,  224,  215,  214, 1319, 1320, 1311, 1310
18, 224,  225,  216,  215, 1320, 1321, 1312, 1311
19, 225,  226,  217,  216, 1321, 1322, 1313, 1312
20, 226,   20,   19,  217, 1322, 1116, 1115, 1313
** ... 12980 like lines cut
***************************************************************
** ---------------- Phase-field ----------------
*Element, type=U4
13001, 75,  209,   10,    1, 1171, 1305, 1106, 1097
13002, 209,  210,   11,   10, 1305, 1306, 1107, 1106
13003, 210,  211,   12,   11, 1306, 1307, 1108, 1107
13004, 211,  212,   13,   12, 1307, 1308, 1109, 1108
13005, 212,  213,   14,   13, 1308, 1309, 1110, 1109
13006, 213,  214,   15,   14, 1309, 1310, 1111, 1110
13007, 214,  215,   16,   15, 1310, 1311, 1112, 1111
13008, 215,  216,   17,   16, 1311, 1312, 1113, 1112
13009, 216,  217,   18,   17, 1312, 1313, 1114, 1113
13010, 217,   19,    2,   18, 1313, 1115, 1098, 1114
13011, 74,  218,  209,   75, 1170, 1314, 1305, 1171
13012, 218,  219,  210,  209, 1314, 1315, 1306, 1305
13013, 219,  220,  211,  210, 1315, 1316, 1307, 1306
13014, 220,  221,  212,  211, 1316, 1317, 1308, 1307
13015, 221,  222,  213,  212, 1317, 1318, 1309, 1308
13016, 222,  223,  214,  213, 1318, 1319, 1310, 1309
13017, 223,  224,  215,  214, 1319, 1320, 1311, 1310
13018, 224,  225,  216,  215, 1320, 1321, 1312, 1311
13019, 225,  226,  217,  216, 1321, 1322, 1313, 1312
13020, 226,   20,   19,  217, 1322, 1116, 1115, 1313
** ... 12980 like lines cut
***************************************************************
********************** ASSIGNING MATERIAL PROP ****************
** ---------------- Generate sets ----------------
*Elset, elset=Block, generate
     1,  13000,      1
***************************************************************
*Uel property, elset=Block
32000000000, 0.2, 100000000000, 0, 0, 2450, 1, 0,
0.004, 3
**E, nu, Y, H, eps_cr, rho, anisoswt, plswt,
**lc, gc
***************************************************************
*Elset, elset=Block_PH, generate
13001, 26000, 1
***************************************************************
*Uel property, elset=Block_PH
0.004, 3, 1
**lc, gc, elswt
***************************************************************
** ---------------- UMAT element layer ----------------
*Element, type=C3D8
26001, 75,  209,   10,    1, 1171, 1305, 1106, 1097
26002, 209,  210,   11,   10, 1305, 1306, 1107, 1106
26003, 210,  211,   12,   11, 1306, 1307, 1108, 1107
26004, 211,  212,   13,   12, 1307, 1308, 1109, 1108
26005, 212,  213,   14,   13, 1308, 1309, 1110, 1109
26006, 213,  214,   15,   14, 1309, 1310, 1111, 1110
26007, 214,  215,   16,   15, 1310, 1311, 1112, 1111
26008, 215,  216,   17,   16, 1311, 1312, 1113, 1112
26009, 216,  217,   18,   17, 1312, 1313, 1114, 1113
26010, 217,   19,    2,   18, 1313, 1115, 1098, 1114
26011, 74,  218,  209,   75, 1170, 1314, 1305, 1171
26012, 218,  219,  210,  209, 1314, 1315, 1306, 1305
26013, 219,  220,  211,  210, 1315, 1316, 1307, 1306
26014, 220,  221,  212,  211, 1316, 1317, 1308, 1307
26015, 221,  222,  213,  212, 1317, 1318, 1309, 1308
26016, 222,  223,  214,  213, 1318, 1319, 1310, 1309
26017, 223,  224,  215,  214, 1319, 1320, 1311, 1310
26018, 224,  225,  216,  215, 1320, 1321, 1312, 1311
26019, 225,  226,  217,  216, 1321, 1322, 1313, 1312
26020, 226,   20,   19,  217, 1322, 1116, 1115, 1313
** ... 12980 like lines cut
***************************************************************
*Elset, elset=umatelem, generate
26001, 39000, 1
***************************************************************
*Solid Section, elset=umatelem, material=umaterial
1.0
*End Part
**  
**
** ASSEMBLY
**
*Assembly, name=Assembly
**  
*Instance, name=Block-1, part=Block
*End Instance
**  
** ---------------- Surface definitions ----------------
*Elset, elset=_btm_S3, internal, instance=Block-1
26726, 26727, 26728, 26729, 26730, 26731, 26732, 26733, 26734, 26735, 26736, 26737, 26738, 26739, 26740, 26741,
26742, 26743, 26744, 26745, 26746, 26747, 26748, 26749, 26750, 27726, 27727, 27728, 27729, 27730, 27731, 27732,
27733, 27734, 27735, 27736, 27737, 27738, 27739, 27740, 27741, 27742, 27743, 27744, 27745, 27746, 27747, 27748,
27749, 27750, 28726, 28727, 28728, 28729, 28730, 28731, 28732, 28733, 28734, 28735, 28736, 28737, 28738, 28739,
28740, 28741, 28742, 28743, 28744, 28745, 28746, 28747, 28748, 28749, 28750, 29726, 29727, 29728, 29729, 29730,
29731, 29732, 29733, 29734, 29735, 29736, 29737, 29738, 29739, 29740, 29741, 29742, 29743, 29744, 29745, 29746,
29747, 29748, 29749, 29750, 30726, 30727, 30728, 30729, 30730, 30731, 30732, 30733, 30734, 30735, 30736, 30737,
30738, 30739, 30740, 30741, 30742, 30743, 30744, 30745, 30746, 30747, 30748, 30749, 30750, 31726, 31727, 31728,
31729, 31730, 31731, 31732, 31733, 31734, 31735, 31736, 31737, 31738, 31739, 31740, 31741, 31742, 31743, 31744,
31745, 31746, 31747, 31748, 31749, 31750, 32726, 32727, 32728, 32729, 32730, 32731, 32732, 32733, 32734, 32735,
32736, 32737, 32738, 32739, 32740, 32741, 32742, 32743, 32744, 32745, 32746, 32747, 32748, 32749, 32750, 33726,
33727, 33728, 33729, 33730, 33731, 33732, 33733, 33734, 33735, 33736, 33737, 33738, 33739, 33740, 33741, 33742,
33743, 33744, 33745, 33746, 33747, 33748, 33749, 33750, 34726, 34727, 34728, 34729, 34730, 34731, 34732, 34733,
34734, 34735, 34736, 34737, 34738, 34739, 34740, 34741, 34742, 34743, 34744, 34745, 34746, 34747, 34748, 34749,
34750, 35726, 35727, 35728, 35729, 35730, 35731, 35732, 35733, 35734, 35735, 35736, 35737, 35738, 35739, 35740,
35741, 35742, 35743, 35744, 35745, 35746, 35747, 35748, 35749, 35750, 36726, 36727, 36728, 36729, 36730, 36731,
36732, 36733, 36734, 36735, 36736, 36737, 36738, 36739, 36740, 36741, 36742, 36743, 36744, 36745, 36746, 36747,
36748, 36749, 36750, 37726, 37727, 37728, 37729, 37730, 37731, 37732, 37733, 37734, 37735, 37736, 37737, 37738,
37739, 37740, 37741, 37742, 37743, 37744, 37745, 37746, 37747, 37748, 37749, 37750, 38726, 38727, 38728, 38729,
38730, 38731, 38732, 38733, 38734, 38735, 38736, 38737, 38738, 38739, 38740, 38741, 38742, 38743, 38744, 38745,
38746, 38747, 38748, 38749, 38750,
*Elset, elset=_btm_S4, internal, instance=Block-1
26760, 26770, 26780, 26790, 26800, 26810, 26820, 26830, 26840, 26850, 26860, 26870, 26880, 26890, 26900, 26910,
26920, 26930, 26940, 26950, 26960, 26970, 26980, 26990, 27000, 27760, 27770, 27780, 27790, 27800, 27810, 27820,
27830, 27840, 27850, 27860, 27870, 27880, 27890, 27900, 27910, 27920, 27930, 27940, 27950, 27960, 27970, 27980,
27990, 28000, 28760, 28770, 28780, 28790, 28800, 28810, 28820, 28830, 28840, 28850, 28860, 28870, 28880, 28890,
28900, 28910, 28920, 28930, 28940, 28950, 28960, 28970, 28980, 28990, 29000, 29760, 29770, 29780, 29790, 29800,
29810, 29820, 29830, 29840, 29850, 29860, 29870, 29880, 29890, 29900, 29910, 29920, 29930, 29940, 29950, 29960,
29970, 29980, 29990, 30000, 30760, 30770, 30780, 30790, 30800, 30810, 30820, 30830, 30840, 30850, 30860, 30870,
30880, 30890, 30900, 30910, 30920, 30930, 30940, 30950, 30960, 30970, 30980, 30990, 31000, 31760, 31770, 31780,
31790, 31800, 31810, 31820, 31830, 31840, 31850, 31860, 31870, 31880, 31890, 31900, 31910, 31920, 31930, 31940,
31950, 31960, 31970, 31980, 31990, 32000, 32760, 32770, 32780, 32790, 32800, 32810, 32820, 32830, 32840, 32850,
32860, 32870, 32880, 32890, 32900, 32910, 32920, 32930, 32940, 32950, 32960, 32970, 32980, 32990, 33000, 33760,
33770, 33780, 33790, 33800, 33810, 33820, 33830, 33840, 33850, 33860, 33870, 33880, 33890, 33900, 33910, 33920,
33930, 33940, 33950, 33960, 33970, 33980, 33990, 34000, 34760, 34770, 34780, 34790, 34800, 34810, 34820, 34830,
34840, 34850, 34860, 34870, 34880, 34890, 34900, 34910, 34920, 34930, 34940, 34950, 34960, 34970, 34980, 34990,
35000, 35760, 35770, 35780, 35790, 35800, 35810, 35820, 35830, 35840, 35850, 35860, 35870, 35880, 35890, 35900,
35910, 35920, 35930, 35940, 35950, 35960, 35970, 35980, 35990, 36000, 36760, 36770, 36780, 36790, 36800, 36810,
36820, 36830, 36840, 36850, 36860, 36870, 36880, 36890, 36900, 36910, 36920, 36930, 36940, 36950, 36960, 36970,
36980, 36990, 37000, 37760, 37770, 37780, 37790, 37800, 37810, 37820, 37830, 37840, 37850, 37860, 37870, 37880,
37890, 37900, 37910, 37920, 37930, 37940, 37950, 37960, 37970, 37980, 37990, 38000, 38760, 38770, 38780, 38790,
38800, 38810, 38820, 38830, 38840, 38850, 38860, 38870, 38880, 38890, 38900, 38910, 38920, 38930, 38940, 38950,
38960, 38970, 38980, 38990, 39000,
*Surface, type=ELEMENT, name=btm
_btm_S3, S3
_btm_S4, S4
*Elset, elset=_top_S6, internal, instance=Block-1
26001, 26011, 26021, 26031, 26041, 26051, 26061, 26071, 26081, 26091, 26101, 26111, 26121, 26131, 26141, 26151,
26161, 26171, 26181, 26191, 26201, 26211, 26221, 26231, 26241, 27001, 27011, 27021, 27031, 27041, 27051, 27061,
27071, 27081, 27091, 27101, 27111, 27121, 27131, 27141, 27151, 27161, 27171, 27181, 27191, 27201, 27211, 27221,
27231, 27241, 28001, 28011, 28021, 28031, 28041, 28051, 28061, 28071, 28081, 28091, 28101, 28111, 28121, 28131,
28141, 28151, 28161, 28171, 28181, 28191, 28201, 28211, 28221, 28231, 28241, 29001, 29011, 29021, 29031, 29041,
29051, 29061, 29071, 29081, 29091, 29101, 29111, 29121, 29131, 29141, 29151, 29161, 29171, 29181, 29191, 29201,
29211, 29221, 29231, 29241, 30001, 30011, 30021, 30031, 30041, 30051, 30061, 30071, 30081, 30091, 30101, 30111,
30121, 30131, 30141, 30151, 30161, 30171, 30181, 30191, 30201, 30211, 30221, 30231, 30241, 31001, 31011, 31021,
31031, 31041, 31051, 31061, 31071, 31081, 31091, 31101, 31111, 31121, 31131, 31141, 31151, 31161, 31171, 31181,
31191, 31201, 31211, 31221, 31231, 31241, 32001, 32011, 32021, 32031, 32041, 32051, 32061, 32071, 32081, 32091,
32101, 32111, 32121, 32131, 32141, 32151, 32161, 32171, 32181, 32191, 32201, 32211, 32221, 32231, 32241, 33001,
33011, 33021, 33031, 33041, 33051, 33061, 33071, 33081, 33091, 33101, 33111, 33121, 33131, 33141, 33151, 33161,
33171, 33181, 33191, 33201, 33211, 33221, 33231, 33241, 34001, 34011, 34021, 34031, 34041, 34051, 34061, 34071,
34081, 34091, 34101, 34111, 34121, 34131, 34141, 34151, 34161, 34171, 34181, 34191, 34201, 34211, 34221, 34231,
34241, 35001, 35011, 35021, 35031, 35041, 35051, 35061, 35071, 35081, 35091, 35101, 35111, 35121, 35131, 35141,
35151, 35161, 35171, 35181, 35191, 35201, 35211, 35221, 35231, 35241, 36001, 36011, 36021, 36031, 36041, 36051,
36061, 36071, 36081, 36091, 36101, 36111, 36121, 36131, 36141, 36151, 36161, 36171, 36181, 36191, 36201, 36211,
36221, 36231, 36241, 37001, 37011, 37021, 37031, 37041, 37051, 37061, 37071, 37081, 37091, 37101, 37111, 37121,
37131, 37141, 37151, 37161, 37171, 37181, 37191, 37201, 37211, 37221, 37231, 37241, 38001, 38011, 38021, 38031,
38041, 38051, 38061, 38071, 38081, 38091, 38101, 38111, 38121, 38131, 38141, 38151, 38161, 38171, 38181, 38191,
38201, 38211, 38221, 38231, 38241,
*Elset, elset=_top_S5, internal, instance=Block-1
26251, 26252, 26253, 26254, 26255, 26256, 26257, 26258, 26259, 26260, 26261, 26262, 26263, 26264, 26265, 26266,
26267, 26268, 26269, 26270, 26271, 26272, 26273, 26274, 26275, 27251, 27252, 27253, 27254, 27255, 27256, 27257,
27258, 27259, 27260, 27261, 27262, 27263, 27264, 27265, 27266, 27267, 27268, 27269, 27270, 27271, 27272, 27273,
27274, 27275, 28251, 28252, 28253, 28254, 28255, 28256, 28257, 28258, 28259, 28260, 28261, 28262, 28263, 28264,
28265, 28266, 28267, 28268, 28269, 28270, 28271, 28272, 28273, 28274, 28275, 29251, 29252, 29253, 29254, 29255,
29256, 29257, 29258, 29259, 29260, 29261, 29262, 29263, 29264, 29265, 29266, 29267, 29268, 29269, 29270, 29271,
29272, 29273, 29274, 29275, 30251, 30252, 30253, 30254, 30255, 30256, 30257, 30258, 30259, 30260, 30261, 30262,
30263, 30264, 30265, 30266, 30267, 30268, 30269, 30270, 30271, 30272, 30273, 30274, 30275, 31251, 31252, 31253,
31254, 31255, 31256, 31257, 31258, 31259, 31260, 31261, 31262, 31263, 31264, 31265, 31266, 31267, 31268, 31269,
31270, 31271, 31272, 31273, 31274, 31275, 32251, 32252, 32253, 32254, 32255, 32256, 32257, 32258, 32259, 32260,
32261, 32262, 32263, 32264, 32265, 32266, 32267, 32268, 32269, 32270, 32271, 32272, 32273, 32274, 32275, 33251,
33252, 33253, 33254, 33255, 33256, 33257, 33258, 33259, 33260, 33261, 33262, 33263, 33264, 33265, 33266, 33267,
33268, 33269, 33270, 33271, 33272, 33273, 33274, 33275, 34251, 34252, 34253, 34254, 34255, 34256, 34257, 34258,
34259, 34260, 34261, 34262, 34263, 34264, 34265, 34266, 34267, 34268, 34269, 34270, 34271, 34272, 34273, 34274,
34275, 35251, 35252, 35253, 35254, 35255, 35256, 35257, 35258, 35259, 35260, 35261, 35262, 35263, 35264, 35265,
35266, 35267, 35268, 35269, 35270, 35271, 35272, 35273, 35274, 35275, 36251, 36252, 36253, 36254, 36255, 36256,
36257, 36258, 36259, 36260, 36261, 36262, 36263, 36264, 36265, 36266, 36267, 36268, 36269, 36270, 36271, 36272,
36273, 36274, 36275, 37251, 37252, 37253, 37254, 37255, 37256, 37257, 37258, 37259, 37260, 37261, 37262, 37263,
37264, 37265, 37266, 37267, 37268, 37269, 37270, 37271, 37272, 37273, 37274, 37275, 38251, 38252, 38253, 38254,
38255, 38256, 38257, 38258, 38259, 38260, 38261, 38262, 38263, 38264, 38265, 38266, 38267, 38268, 38269, 38270,
38271, 38272, 38273, 38274, 38275,
*Surface, type=ELEMENT, name=top
_top_S6, S6
_top_S5, S5
**
*Elset, elset=umatelem, instance=Block-1, generate
26001, 39000, 1
**
*End Assembly
***************************************************************
** 
** MATERIALS
** 
** ----- UMAT MATERIAL -----
*Material, name=umaterial
*Density
 1e-11,
*Depvar
     34,
*User Material, constants=2
 1e-11, 0.3
** ----------------------------------------------------------------
** 
** STEP: Step-1
** 
** ---- Time integration control
*Step, name=Step-1, nlgeom=NO, inc=1000
*Dynamic,direct
1e-07,0.0001,
** 
** LOADS
** 
** ---- Pressure load on the bottom and the top side of the sample
** Name: btm   Type: Pressure
*Dsload
btm, P, -1e+06
** Name: top   Type: Pressure
*Dsload
top, P, -1e+06
** 
** OUTPUT REQUESTS
** 
** ---- Restart file request
*Restart, write, frequency=0
** 
** ---- Output request
** FIELD OUTPUT: F-Output-1
** 
*Output, field
*Node Output
A, U, V
*Element Output, directions=YES
E, 
** 
** HISTORY OUTPUT: H-Output-1
** 
*element output, elset=umatelem
SDV
*Element Output, elset=umatelem, Position=Integration Points
COORD, IVOL
**
*Output, history, variable=PRESELECT
*End Step
