*Heading
*Heading
 Cantilever beam under Horiz & Vert loads
** Job name: beam3d Model name: Model-1
**
** PARTS
**
*Part, name=Beam
*Node
      1,           0.,          -5.,           0.
      2,          10.,          -5.,           0.
      3,           0.,          -5.,          10.
      4,          10.,          -5.,          10.
      5,           0.,          -5.,          20.
      6,          10.,          -5.,          20.
      7,           0.,           0.,           0.
      8,          10.,           0.,           0.
      9,           0.,           0.,          10.
     10,          10.,           0.,          10.
     11,           0.,           0.,          20.
     12,          10.,           0.,          20.
     13,           0.,           5.,           0.
     14,          10.,           5.,           0.
     15,           0.,           5.,          10.
     16,          10.,           5.,          10.
     17,           0.,           5.,          20.
     18,          10.,           5.,          20.
     19,          20.,          -5.,           0.
     20,          30.,          -5.,           0.
** ... 79 like lines cut
*Element, type=C3D8I, elset=beam
 1, 14,  8, 10, 16, 13,  7,  9, 15
 2, 16, 10, 12, 18, 15,  9, 11, 17
 3, 31, 25, 27, 33, 14,  8, 10, 16
 4, 33, 27, 29, 35, 16, 10, 12, 18
 5, 32, 26, 28, 34, 31, 25, 27, 33
 6, 34, 28, 30, 36, 33, 27, 29, 35
 7, 43, 40, 41, 44, 32, 26, 28, 34
 8, 44, 41, 42, 45, 34, 28, 30, 36
 9, 58, 52, 54, 60, 43, 40, 41, 44
10, 60, 54, 56, 62, 44, 41, 42, 45
11, 59, 53, 55, 61, 58, 52, 54, 60
12, 61, 55, 57, 63, 60, 54, 56, 62
13, 76, 70, 72, 78, 59, 53, 55, 61
14, 78, 72, 74, 80, 61, 55, 57, 63
15, 77, 71, 73, 79, 76, 70, 72, 78
16, 79, 73, 75, 81, 78, 72, 74, 80
17, 94, 88, 90, 96, 77, 71, 73, 79
18, 96, 90, 92, 98, 79, 73, 75, 81
19, 95, 89, 91, 97, 94, 88, 90, 96
20, 97, 91, 93, 99, 96, 90, 92, 98
** ... 20 like lines cut
*Solid Section, elset=beam, material=STEEL
*End Part
**  
**
** ASSEMBLY
**
*Assembly, name=Assembly
**  
*Instance, name=Beam-1, part=Beam
*End Instance
**  
*Nset, nset=fixed, instance=Beam-1, generate
  1,  17,   2
*Nset, nset=load, instance=Beam-1
 83, 87, 95, 99
*End Assembly
** 
** MATERIALS
** 
*Material, name=STEEL
*Density
7800.,
*Elastic
 2e+11, 0.3
** 
** BOUNDARY CONDITIONS
** 
** Name: Disp-BC-1 Type: Symmetry/Antisymmetry/Encastre
*Boundary
fixed, ENCASTRE
** ----------------------------------------------------------------
** 
** STEP: Sideways
** 
*Step, name=Sideways
*Static
1., 1., 1e-05, 1.
** 
** LOADS
** 
** Name: TipLoad   Type: Concentrated force
*Cload
load, 3, -1e+8
** 
** OUTPUT REQUESTS
** 
*Output, field, variable=PRESELECT
*Output, history, variable=PRESELECT
*End Step
** ----------------------------------------------------------------
** 
** STEP: Down
** 
*Step, name=Down
*Static
1., 1., 1e-05, 1.
** 
** LOADS
** 
*Cload
load, 2, -.5e+8
load, 3, 0.
*End Step
