1

   Abaqus 2023.HF4                                  Date 06-Aug-2024   Time 20:14:08
   For use by AALTO UNIVERSITY under license from Dassault Systemes or its subsidiary.

                                                                                 
                                                                                 
 STEP    1     INCREMENT     1     STEP TIME    0.00    


                        S T E P       1     S T A T I C   A N A L Y S I S


                                                                                          

     AUTOMATIC TIME CONTROL WITH -
          A SUGGESTED INITIAL TIME INCREMENT OF                1.000E-06
          AND A TOTAL TIME PERIOD OF                           1.000E-02
          THE MINIMUM TIME INCREMENT ALLOWED IS                1.000E-15
          THE MAXIMUM TIME INCREMENT ALLOWED IS                1.000E-04

     LINEAR EQUATION SOLVER TYPE         DIRECT SPARSE

 CONVERGENCE TOLERANCE PARAMETERS FOR FORCE    
     CRITERION FOR RESIDUAL FORCE     FOR A NONLINEAR PROBLEM          5.000E-03
     CRITERION FOR DISP.    CORRECTION IN A NONLINEAR PROBLEM          1.000E-02
     INITIAL VALUE OF TIME AVERAGE FORCE                               1.000E-02
     AVERAGE FORCE     IS TIME AVERAGE FORCE    
     ALTERNATE CRIT. FOR RESIDUAL FORCE     FOR A NONLINEAR PROBLEM    2.000E-02
     CRITERION FOR ZERO FORCE     RELATIVE TO TIME AVRG. FORCE         1.000E-05
     CRITERION FOR RESIDUAL FORCE     WHEN THERE IS ZERO FLUX          1.000E-05
     CRITERION FOR DISP.    CORRECTION WHEN THERE IS ZERO FLUX         1.000E-03
     CRITERION FOR RESIDUAL FORCE     FOR A LINEAR INCREMENT           1.000E-08
     FIELD CONVERSION RATIO                                             1.00    
     CRITERION FOR ZERO FORCE     REL. TO TIME AVRG. MAX. FORCE        1.000E-05
     CRITERION FOR ZERO DISP.    RELATIVE TO CHARACTERISTIC LENGTH     1.000E-08

     VOLUMETRIC STRAIN COMPATIBILITY TOLERANCE FOR HYBRID SOLIDS       1.000E-05
     AXIAL STRAIN COMPATIBILITY TOLERANCE FOR HYBRID BEAMS             1.000E-05
     TRANS. SHEAR STRAIN COMPATIBILITY TOLERANCE FOR HYBRID BEAMS      1.000E-05
     SOFT CONTACT CONSTRAINT COMPATIBILITY TOLERANCE FOR P>P0          5.000E-03
     SOFT CONTACT CONSTRAINT COMPATIBILITY TOLERANCE FOR P=0.0         0.100    
     CONTACT FORCE ERROR TOLERANCE FOR CONVERT SDI=YES                 1.00    
     DISPLACEMENT COMPATIBILITY TOLERANCE FOR DCOUP ELEMENTS           1.000E-05
     ROTATION COMPATIBILITY TOLERANCE FOR DCOUP ELEMENTS               1.000E-05

 EQUILIBRIUM WILL BE CHECKED FOR SEVERE DISCONTINUITY ITERATIONS

 TIME INCREMENTATION CONTROL PARAMETERS:
     FIRST EQUILIBRIUM ITERATION FOR CONSECUTIVE DIVERGENCE CHECK              4
     EQUILIBRIUM ITERATION AT WHICH LOG. CONVERGENCE RATE CHECK BEGINS         8
     EQUILIBRIUM ITERATION AFTER WHICH ALTERNATE RESIDUAL IS USED              9
     MAXIMUM EQUILIBRIUM ITERATIONS ALLOWED                                   16
     EQUILIBRIUM ITERATION COUNT FOR CUT-BACK IN NEXT INCREMENT               10
     MAXIMUM EQUILIB. ITERS IN TWO INCREMENTS FOR TIME INCREMENT INCREASE      4
     MAXIMUM ITERATIONS FOR SEVERE DISCONTINUITIES                            50
     MAXIMUM ATTEMPTS ALLOWED IN AN INCREMENT                                  5
     MAXIMUM DISCON. ITERS IN TWO INCREMENTS FOR TIME INCREMENT INCREASE      50
     MAXIMUM CONTACT AUGMENTATIONS FOR *SURFACE BEHAVIOR,AUGMENTED LAGRANGE   50
     CUT-BACK FACTOR AFTER DIVERGENCE                                 0.2500    
     CUT-BACK FACTOR FOR TOO SLOW CONVERGENCE                         0.5000    
     CUT-BACK FACTOR AFTER TOO MANY EQUILIBRIUM ITERATIONS            0.7500    
     CUT-BACK FACTOR AFTER TOO MANY SEVERE DISCONTINUITY ITERATIONS   0.2500    
     CUT-BACK FACTOR AFTER PROBLEMS IN ELEMENT ASSEMBLY               0.2500    
     INCREASE FACTOR AFTER TWO INCREMENTS THAT CONVERGE QUICKLY        1.500    
     MAX. TIME INCREMENT INCREASE FACTOR ALLOWED                       1.500    
     MAX. TIME INCREMENT INCREASE FACTOR ALLOWED (DYNAMICS)            1.250    
     MAX. TIME INCREMENT INCREASE FACTOR ALLOWED (DIFFUSION)           2.000    
     MINIMUM TIME INCREMENT RATIO FOR EXTRAPOLATION TO OCCUR          0.1000    
     MAX. RATIO OF TIME INCREMENT TO STABILITY LIMIT                   1.000    
     FRACTION OF STABILITY LIMIT FOR NEW TIME INCREMENT               0.9500    
     TIME INCREMENT INCREASE FACTOR BEFORE A TIME POINT                1.000    
     GLOBAL STABILIZATION CONTROL IS NOT USED

          PRINT OF INCREMENT NUMBER, TIME, ETC., EVERY    1  INCREMENTS

     THE MAXIMUM NUMBER OF INCREMENTS IN THIS STEP IS                 *******

          LARGE DISPLACEMENT THEORY WILL BE USED

     LINEAR EXTRAPOLATION WILL BE USED

     CHARACTERISTIC ELEMENT LENGTH     9.561E-02

     DETAILS REGARDING ACTUAL SOLUTION WAVEFRONT REQUESTED

     DETAILED OUTPUT OF DIAGNOSTICS TO DATABASE REQUESTED

     PRINT OF INCREMENT NUMBER, TIME, ETC., TO THE MESSAGE FILE EVERY     1  INCREMENTS

     ELEMENT OPERATIONS WILL BE CARRIED OUT IN PARALLEL USING   2 THREADS ON 1 DOMAIN

     PARALLEL CONTACT TRACKING ENABLED


     COLLECTING MODEL CONSTRAINT INFORMATION FOR OVERCONSTRAINT CHECKS

     COLLECTING STEP CONSTRAINT INFORMATION FOR OVERCONSTRAINT CHECKS


  INCREMENT     1 STARTS. ATTEMPT NUMBER  1, TIME INCREMENT  1.000E-06
 
     INITIAL ELEMENT LOAD BALANCE
            DOMAIN    1     THREAD    NUMBER OF ELEMENTS
                              1            176
                              2            194
 
	SYMMETRIC NEW DIRECT SPARSE SOLVER RUNNING ON
 	1 HOST x 1 MPI RANK PER HOST x 2 THREADS PER RANK
        NUMBER OF EQUATIONS:  228
        NUMBER OF RHS:        1
        NUMBER OF FLOPS:      7.018e+04
        SOLVER ELAPSED TIME:  19ms

               CONVERGENCE CHECKS FOR EQUILIBRIUM ITERATION     1


 AVERAGE FORCE                      1.403E+04   TIME AVG. FORCE       1.403E+04
 LARGEST SCALED RESIDUAL FORCE      1.281E-09   AT NODE         57   DOF  2
  CORRESPONDING RESIDUAL FORCE      1.281E-09
 LARGEST INCREMENT OF DISP.         8.000E-06   AT NODE          4   DOF  2
 LARGEST CORRECTION TO DISP.        8.000E-06   AT NODE          4   DOF  2
          THE FORCE     EQUILIBRIUM RESPONSE WAS LINEAR IN THIS INCREMENT

 ITERATION SUMMARY FOR THE INCREMENT:   1 TOTAL ITERATIONS, OF WHICH
   0 ARE SEVERE DISCONTINUITY ITERATIONS AND  1 ARE EQUILIBRIUM ITERATIONS.

 TIME INCREMENT COMPLETED  1.000E-06,  FRACTION OF STEP COMPLETED  1.000E-04
 STEP TIME COMPLETED       1.000E-06,  TOTAL TIME COMPLETED        1.000E-06


  INCREMENT     2 STARTS. ATTEMPT NUMBER  1, TIME INCREMENT  1.000E-06
 
	SYMMETRIC NEW DIRECT SPARSE SOLVER RUNNING ON
 	1 HOST x 1 MPI RANK PER HOST x 2 THREADS PER RANK
        NUMBER OF EQUATIONS:  228
        NUMBER OF RHS:        1
        NUMBER OF FLOPS:      7.018e+04
        SOLVER ELAPSED TIME:  1ms

               CONVERGENCE CHECKS FOR EQUILIBRIUM ITERATION     1


 AVERAGE FORCE                      2.814E+04   TIME AVG. FORCE       2.108E+04
 LARGEST SCALED RESIDUAL FORCE     -4.511E-10   AT NODE        112   DOF  2
  CORRESPONDING RESIDUAL FORCE     -4.511E-10
 LARGEST INCREMENT OF DISP.         8.000E-06   AT NODE          4   DOF  2
 LARGEST CORRECTION TO DISP.        1.092E-20   AT NODE          6   DOF  2
          THE FORCE     EQUILIBRIUM RESPONSE WAS LINEAR IN THIS INCREMENT
          TIME INCREMENT MAY NOW INCREASE TO    1.500E-06

 ITERATION SUMMARY FOR THE INCREMENT:   1 TOTAL ITERATIONS, OF WHICH
   0 ARE SEVERE DISCONTINUITY ITERATIONS AND  1 ARE EQUILIBRIUM ITERATIONS.

 TIME INCREMENT COMPLETED  1.000E-06,  FRACTION OF STEP COMPLETED  2.000E-04
 STEP TIME COMPLETED       2.000E-06,  TOTAL TIME COMPLETED        2.000E-06


  INCREMENT     3 STARTS. ATTEMPT NUMBER  1, TIME INCREMENT  1.500E-06
 
	SYMMETRIC NEW DIRECT SPARSE SOLVER RUNNING ON
 	1 HOST x 1 MPI RANK PER HOST x 2 THREADS PER RANK
        NUMBER OF EQUATIONS:  228
        NUMBER OF RHS:        1
        NUMBER OF FLOPS:      7.018e+04
        SOLVER ELAPSED TIME:  1ms

               CONVERGENCE CHECKS FOR EQUILIBRIUM ITERATION     1


 AVERAGE FORCE                      4.220E+04   TIME AVG. FORCE       2.812E+04
 LARGEST SCALED RESIDUAL FORCE     -8.149E-10   AT NODE         90   DOF  2
  CORRESPONDING RESIDUAL FORCE     -8.149E-10
 LARGEST INCREMENT OF DISP.         1.200E-05   AT NODE          4   DOF  2
 LARGEST CORRECTION TO DISP.       -9.245E-21   AT NODE         36   DOF  2
          THE FORCE     EQUILIBRIUM RESPONSE WAS LINEAR IN THIS INCREMENT
          TIME INCREMENT MAY NOW INCREASE TO    2.250E-06

 ITERATION SUMMARY FOR THE INCREMENT:   1 TOTAL ITERATIONS, OF WHICH
   0 ARE SEVERE DISCONTINUITY ITERATIONS AND  1 ARE EQUILIBRIUM ITERATIONS.

 TIME INCREMENT COMPLETED  1.500E-06,  FRACTION OF STEP COMPLETED  3.500E-04
 STEP TIME COMPLETED       3.500E-06,  TOTAL TIME COMPLETED        3.500E-06


  INCREMENT     4 STARTS. ATTEMPT NUMBER  1, TIME INCREMENT  2.250E-06
 
	SYMMETRIC NEW DIRECT SPARSE SOLVER RUNNING ON
 	1 HOST x 1 MPI RANK PER HOST x 2 THREADS PER RANK
        NUMBER OF EQUATIONS:  228
        NUMBER OF RHS:        1
        NUMBER OF FLOPS:      7.018e+04
        SOLVER ELAPSED TIME:  1ms

               CONVERGENCE CHECKS FOR EQUILIBRIUM ITERATION     1


 AVERAGE FORCE                      6.325E+04   TIME AVG. FORCE       3.691E+04
 LARGEST SCALED RESIDUAL FORCE     -1.368E-09   AT NODE         56   DOF  2
  CORRESPONDING RESIDUAL FORCE     -1.368E-09
 LARGEST INCREMENT OF DISP.         1.800E-05   AT NODE          4   DOF  2
 LARGEST CORRECTION TO DISP.       -4.562E-21   AT NODE         90   DOF  2
          THE FORCE     EQUILIBRIUM RESPONSE WAS LINEAR IN THIS INCREMENT
          TIME INCREMENT MAY NOW INCREASE TO    3.375E-06

 ITERATION SUMMARY FOR THE INCREMENT:   1 TOTAL ITERATIONS, OF WHICH
   0 ARE SEVERE DISCONTINUITY ITERATIONS AND  1 ARE EQUILIBRIUM ITERATIONS.

 TIME INCREMENT COMPLETED  2.250E-06,  FRACTION OF STEP COMPLETED  5.750E-04
 STEP TIME COMPLETED       5.750E-06,  TOTAL TIME COMPLETED        5.750E-06


  INCREMENT     5 STARTS. ATTEMPT NUMBER  1, TIME INCREMENT  3.375E-06
 
	SYMMETRIC NEW DIRECT SPARSE SOLVER RUNNING ON
 	1 HOST x 1 MPI RANK PER HOST x 2 THREADS PER RANK
        NUMBER OF EQUATIONS:  228
        NUMBER OF RHS:        1
        NUMBER OF FLOPS:      7.018e+04
        SOLVER ELAPSED TIME:  1ms

               CONVERGENCE CHECKS FOR EQUILIBRIUM ITERATION     1


 AVERAGE FORCE                      9.487E+04   TIME AVG. FORCE       4.850E+04
 LARGEST SCALED RESIDUAL FORCE      2.212E-09   AT NODE         85   DOF  2
  CORRESPONDING RESIDUAL FORCE      2.212E-09
 LARGEST INCREMENT OF DISP.         2.700E-05   AT NODE          4   DOF  2
 LARGEST CORRECTION TO DISP.        7.412E-21   AT NODE         39   DOF  2
          THE FORCE     EQUILIBRIUM RESPONSE WAS LINEAR IN THIS INCREMENT
          TIME INCREMENT MAY NOW INCREASE TO    5.062E-06

 ITERATION SUMMARY FOR THE INCREMENT:   1 TOTAL ITERATIONS, OF WHICH
   0 ARE SEVERE DISCONTINUITY ITERATIONS AND  1 ARE EQUILIBRIUM ITERATIONS.

 TIME INCREMENT COMPLETED  3.375E-06,  FRACTION OF STEP COMPLETED  9.125E-04
 STEP TIME COMPLETED       9.125E-06,  TOTAL TIME COMPLETED        9.125E-06


  INCREMENT     6 STARTS. ATTEMPT NUMBER  1, TIME INCREMENT  5.062E-06
 
	SYMMETRIC NEW DIRECT SPARSE SOLVER RUNNING ON
 	1 HOST x 1 MPI RANK PER HOST x 2 THREADS PER RANK
        NUMBER OF EQUATIONS:  228
        NUMBER OF RHS:        1
        NUMBER OF FLOPS:      7.018e+04
        SOLVER ELAPSED TIME:  1ms

               CONVERGENCE CHECKS FOR EQUILIBRIUM ITERATION     1


 AVERAGE FORCE                      1.423E+05   TIME AVG. FORCE       6.413E+04
 LARGEST SCALED RESIDUAL FORCE      3.900E-09   AT NODE         76   DOF  2
  CORRESPONDING RESIDUAL FORCE      3.900E-09
 LARGEST INCREMENT OF DISP.         4.050E-05   AT NODE          4   DOF  2
 LARGEST CORRECTION TO DISP.        1.876E-20   AT NODE         85   DOF  2
          THE FORCE     EQUILIBRIUM RESPONSE WAS LINEAR IN THIS INCREMENT
          TIME INCREMENT MAY NOW INCREASE TO    7.594E-06

 ITERATION SUMMARY FOR THE INCREMENT:   1 TOTAL ITERATIONS, OF WHICH
   0 ARE SEVERE DISCONTINUITY ITERATIONS AND  1 ARE EQUILIBRIUM ITERATIONS.

 TIME INCREMENT COMPLETED  5.062E-06,  FRACTION OF STEP COMPLETED  1.419E-03
 STEP TIME COMPLETED       1.419E-05,  TOTAL TIME COMPLETED        1.419E-05


  INCREMENT     7 STARTS. ATTEMPT NUMBER  1, TIME INCREMENT  7.594E-06
 
	SYMMETRIC NEW DIRECT SPARSE SOLVER RUNNING ON
 	1 HOST x 1 MPI RANK PER HOST x 2 THREADS PER RANK
        NUMBER OF EQUATIONS:  228
        NUMBER OF RHS:        1
        NUMBER OF FLOPS:      7.018e+04
        SOLVER ELAPSED TIME:  1ms

               CONVERGENCE CHECKS FOR EQUILIBRIUM ITERATION     1


 AVERAGE FORCE                      2.135E+05   TIME AVG. FORCE       8.547E+04
 LARGEST SCALED RESIDUAL FORCE     -4.133E-09   AT NODE         56   DOF  2
  CORRESPONDING RESIDUAL FORCE     -4.133E-09
 LARGEST INCREMENT OF DISP.         6.075E-05   AT NODE          4   DOF  2
 LARGEST CORRECTION TO DISP.       -1.254E-20   AT NODE          6   DOF  2
          THE FORCE     EQUILIBRIUM RESPONSE WAS LINEAR IN THIS INCREMENT
          TIME INCREMENT MAY NOW INCREASE TO    1.139E-05

 ITERATION SUMMARY FOR THE INCREMENT:   1 TOTAL ITERATIONS, OF WHICH
   0 ARE SEVERE DISCONTINUITY ITERATIONS AND  1 ARE EQUILIBRIUM ITERATIONS.

 TIME INCREMENT COMPLETED  7.594E-06,  FRACTION OF STEP COMPLETED  2.178E-03
 STEP TIME COMPLETED       2.178E-05,  TOTAL TIME COMPLETED        2.178E-05


  INCREMENT     8 STARTS. ATTEMPT NUMBER  1, TIME INCREMENT  1.139E-05
 
	SYMMETRIC NEW DIRECT SPARSE SOLVER RUNNING ON
 	1 HOST x 1 MPI RANK PER HOST x 2 THREADS PER RANK
        NUMBER OF EQUATIONS:  228
        NUMBER OF RHS:        1
        NUMBER OF FLOPS:      7.018e+04
        SOLVER ELAPSED TIME:  1ms

               CONVERGENCE CHECKS FOR EQUILIBRIUM ITERATION     1


 AVERAGE FORCE                      3.202E+05   TIME AVG. FORCE       1.148E+05
 LARGEST SCALED RESIDUAL FORCE     -6.054E-09   AT NODE         76   DOF  2
  CORRESPONDING RESIDUAL FORCE     -6.054E-09
 LARGEST INCREMENT OF DISP.         9.113E-05   AT NODE          4   DOF  2
 LARGEST CORRECTION TO DISP.        1.754E-20   AT NODE          6   DOF  2
          THE FORCE     EQUILIBRIUM RESPONSE WAS LINEAR IN THIS INCREMENT
          TIME INCREMENT MAY NOW INCREASE TO    1.709E-05

 ITERATION SUMMARY FOR THE INCREMENT:   1 TOTAL ITERATIONS, OF WHICH
   0 ARE SEVERE DISCONTINUITY ITERATIONS AND  1 ARE EQUILIBRIUM ITERATIONS.

 TIME INCREMENT COMPLETED  1.139E-05,  FRACTION OF STEP COMPLETED  3.317E-03
 STEP TIME COMPLETED       3.317E-05,  TOTAL TIME COMPLETED        3.317E-05


  INCREMENT     9 STARTS. ATTEMPT NUMBER  1, TIME INCREMENT  1.709E-05
 
	SYMMETRIC NEW DIRECT SPARSE SOLVER RUNNING ON
 	1 HOST x 1 MPI RANK PER HOST x 2 THREADS PER RANK
        NUMBER OF EQUATIONS:  228
        NUMBER OF RHS:        1
        NUMBER OF FLOPS:      7.018e+04
        SOLVER ELAPSED TIME:  1ms

               CONVERGENCE CHECKS FOR EQUILIBRIUM ITERATION     1


 AVERAGE FORCE                      4.803E+05   TIME AVG. FORCE       1.554E+05
 LARGEST SCALED RESIDUAL FORCE      1.304E-08   AT NODE         49   DOF  2
  CORRESPONDING RESIDUAL FORCE      1.304E-08
 LARGEST INCREMENT OF DISP.         1.367E-04   AT NODE          4   DOF  2
 LARGEST CORRECTION TO DISP.       -5.186E-20   AT NODE         36   DOF  2
          THE FORCE     EQUILIBRIUM RESPONSE WAS LINEAR IN THIS INCREMENT
          TIME INCREMENT MAY NOW INCREASE TO    2.563E-05

 ITERATION SUMMARY FOR THE INCREMENT:   1 TOTAL ITERATIONS, OF WHICH
   0 ARE SEVERE DISCONTINUITY ITERATIONS AND  1 ARE EQUILIBRIUM ITERATIONS.

 TIME INCREMENT COMPLETED  1.709E-05,  FRACTION OF STEP COMPLETED  5.026E-03
 STEP TIME COMPLETED       5.026E-05,  TOTAL TIME COMPLETED        5.026E-05


  INCREMENT    10 STARTS. ATTEMPT NUMBER  1, TIME INCREMENT  2.563E-05
 
	SYMMETRIC NEW DIRECT SPARSE SOLVER RUNNING ON
 	1 HOST x 1 MPI RANK PER HOST x 2 THREADS PER RANK
        NUMBER OF EQUATIONS:  228
        NUMBER OF RHS:        1
        NUMBER OF FLOPS:      7.018e+04
        SOLVER ELAPSED TIME:  1ms

               CONVERGENCE CHECKS FOR EQUILIBRIUM ITERATION     1


 AVERAGE FORCE                      7.205E+05   TIME AVG. FORCE       2.119E+05
 LARGEST SCALED RESIDUAL FORCE      1.490E-08   AT NODE         57   DOF  2
  CORRESPONDING RESIDUAL FORCE      1.490E-08
 LARGEST INCREMENT OF DISP.         2.050E-04   AT NODE          4   DOF  2
 LARGEST CORRECTION TO DISP.        2.021E-19   AT NODE          6   DOF  2
          THE FORCE     EQUILIBRIUM RESPONSE WAS LINEAR IN THIS INCREMENT
          TIME INCREMENT MAY NOW INCREASE TO    3.844E-05

 ITERATION SUMMARY FOR THE INCREMENT:   1 TOTAL ITERATIONS, OF WHICH
   0 ARE SEVERE DISCONTINUITY ITERATIONS AND  1 ARE EQUILIBRIUM ITERATIONS.

 TIME INCREMENT COMPLETED  2.563E-05,  FRACTION OF STEP COMPLETED  7.589E-03
 STEP TIME COMPLETED       7.589E-05,  TOTAL TIME COMPLETED        7.589E-05


  INCREMENT    11 STARTS. ATTEMPT NUMBER  1, TIME INCREMENT  3.844E-05
 
	SYMMETRIC NEW DIRECT SPARSE SOLVER RUNNING ON
 	1 HOST x 1 MPI RANK PER HOST x 2 THREADS PER RANK
        NUMBER OF EQUATIONS:  228
        NUMBER OF RHS:        1
        NUMBER OF FLOPS:      7.018e+04
        SOLVER ELAPSED TIME:  1ms

               CONVERGENCE CHECKS FOR EQUILIBRIUM ITERATION     1


 AVERAGE FORCE                      1.081E+06   TIME AVG. FORCE       2.909E+05
 LARGEST SCALED RESIDUAL FORCE      2.538E-08   AT NODE         57   DOF  2
  CORRESPONDING RESIDUAL FORCE      2.538E-08
 LARGEST INCREMENT OF DISP.         3.075E-04   AT NODE          4   DOF  2
 LARGEST CORRECTION TO DISP.       -2.711E-19   AT NODE         29   DOF  2
          THE FORCE     EQUILIBRIUM RESPONSE WAS LINEAR IN THIS INCREMENT
          TIME INCREMENT MAY NOW INCREASE TO    5.767E-05

 ITERATION SUMMARY FOR THE INCREMENT:   1 TOTAL ITERATIONS, OF WHICH
   0 ARE SEVERE DISCONTINUITY ITERATIONS AND  1 ARE EQUILIBRIUM ITERATIONS.

 TIME INCREMENT COMPLETED  3.844E-05,  FRACTION OF STEP COMPLETED  1.143E-02
 STEP TIME COMPLETED       1.143E-04,  TOTAL TIME COMPLETED        1.143E-04


  INCREMENT    12 STARTS. ATTEMPT NUMBER  1, TIME INCREMENT  5.767E-05
 
	SYMMETRIC NEW DIRECT SPARSE SOLVER RUNNING ON
 	1 HOST x 1 MPI RANK PER HOST x 2 THREADS PER RANK
        NUMBER OF EQUATIONS:  228
        NUMBER OF RHS:        1
        NUMBER OF FLOPS:      7.018e+04
        SOLVER ELAPSED TIME:  1ms

               CONVERGENCE CHECKS FOR EQUILIBRIUM ITERATION     1


 AVERAGE FORCE                      1.621E+06   TIME AVG. FORCE       4.017E+05
 LARGEST SCALED RESIDUAL FORCE     -3.725E-08   AT NODE        112   DOF  2
  CORRESPONDING RESIDUAL FORCE     -3.725E-08
 LARGEST INCREMENT OF DISP.         4.613E-04   AT NODE          4   DOF  2
 LARGEST CORRECTION TO DISP.        1.946E-19   AT NODE         35   DOF  2
          THE FORCE     EQUILIBRIUM RESPONSE WAS LINEAR IN THIS INCREMENT
          TIME INCREMENT MAY NOW INCREASE TO    8.650E-05

 ITERATION SUMMARY FOR THE INCREMENT:   1 TOTAL ITERATIONS, OF WHICH
   0 ARE SEVERE DISCONTINUITY ITERATIONS AND  1 ARE EQUILIBRIUM ITERATIONS.

 TIME INCREMENT COMPLETED  5.767E-05,  FRACTION OF STEP COMPLETED  1.720E-02
 STEP TIME COMPLETED       1.720E-04,  TOTAL TIME COMPLETED        1.720E-04


  INCREMENT    13 STARTS. ATTEMPT NUMBER  1, TIME INCREMENT  8.650E-05
 
	SYMMETRIC NEW DIRECT SPARSE SOLVER RUNNING ON
 	1 HOST x 1 MPI RANK PER HOST x 2 THREADS PER RANK
        NUMBER OF EQUATIONS:  228
        NUMBER OF RHS:        1
        NUMBER OF FLOPS:      7.018e+04
        SOLVER ELAPSED TIME:  1ms

               CONVERGENCE CHECKS FOR EQUILIBRIUM ITERATION     1


 AVERAGE FORCE                      2.432E+06   TIME AVG. FORCE       5.579E+05
 LARGEST SCALED RESIDUAL FORCE      6.426E-08   AT NODE        102   DOF  2
  CORRESPONDING RESIDUAL FORCE      6.426E-08
 LARGEST INCREMENT OF DISP.         6.920E-04   AT NODE          4   DOF  2
 LARGEST CORRECTION TO DISP.       -4.676E-19   AT NODE         72   DOF  2
          THE FORCE     EQUILIBRIUM RESPONSE WAS LINEAR IN THIS INCREMENT
          TIME INCREMENT MAY NOW INCREASE TO    1.000E-04

 ITERATION SUMMARY FOR THE INCREMENT:   1 TOTAL ITERATIONS, OF WHICH
   0 ARE SEVERE DISCONTINUITY ITERATIONS AND  1 ARE EQUILIBRIUM ITERATIONS.

 TIME INCREMENT COMPLETED  8.650E-05,  FRACTION OF STEP COMPLETED  2.585E-02
 STEP TIME COMPLETED       2.585E-04,  TOTAL TIME COMPLETED        2.585E-04


  INCREMENT    14 STARTS. ATTEMPT NUMBER  1, TIME INCREMENT  1.000E-04
 
	SYMMETRIC NEW DIRECT SPARSE SOLVER RUNNING ON
 	1 HOST x 1 MPI RANK PER HOST x 2 THREADS PER RANK
        NUMBER OF EQUATIONS:  228
        NUMBER OF RHS:        1
        NUMBER OF FLOPS:      7.018e+04
        SOLVER ELAPSED TIME:  1ms

               CONVERGENCE CHECKS FOR EQUILIBRIUM ITERATION     1


 AVERAGE FORCE                      2.811E+06   TIME AVG. FORCE       7.188E+05
 LARGEST SCALED RESIDUAL FORCE     -4.843E-08   AT NODE         93   DOF  2
  CORRESPONDING RESIDUAL FORCE     -4.843E-08
 LARGEST INCREMENT OF DISP.         8.000E-04   AT NODE          4   DOF  2
 LARGEST CORRECTION TO DISP.        6.505E-19   AT NODE          4   DOF  2
          THE FORCE     EQUILIBRIUM RESPONSE WAS LINEAR IN THIS INCREMENT

 ITERATION SUMMARY FOR THE INCREMENT:   1 TOTAL ITERATIONS, OF WHICH
   0 ARE SEVERE DISCONTINUITY ITERATIONS AND  1 ARE EQUILIBRIUM ITERATIONS.

 TIME INCREMENT COMPLETED  1.000E-04,  FRACTION OF STEP COMPLETED  3.585E-02
 STEP TIME COMPLETED       3.585E-04,  TOTAL TIME COMPLETED        3.585E-04


  INCREMENT    15 STARTS. ATTEMPT NUMBER  1, TIME INCREMENT  1.000E-04
 
	SYMMETRIC NEW DIRECT SPARSE SOLVER RUNNING ON
 	1 HOST x 1 MPI RANK PER HOST x 2 THREADS PER RANK
        NUMBER OF EQUATIONS:  228
        NUMBER OF RHS:        1
        NUMBER OF FLOPS:      7.018e+04
        SOLVER ELAPSED TIME:  1ms

               CONVERGENCE CHECKS FOR EQUILIBRIUM ITERATION     1


 AVERAGE FORCE                      2.811E+06   TIME AVG. FORCE       8.583E+05
 LARGEST SCALED RESIDUAL FORCE     -7.381E-08   AT NODE         45   DOF  2
  CORRESPONDING RESIDUAL FORCE     -7.381E-08
 LARGEST INCREMENT OF DISP.         8.000E-04   AT NODE          4   DOF  2
 LARGEST CORRECTION TO DISP.       -4.723E-19   AT NODE         72   DOF  2
          THE FORCE     EQUILIBRIUM RESPONSE WAS LINEAR IN THIS INCREMENT
          TIME INCREMENT REDUCED TO   4.151E-05 TO MEET NEXT OUTPUT TIME POINT

 ITERATION SUMMARY FOR THE INCREMENT:   1 TOTAL ITERATIONS, OF WHICH
   0 ARE SEVERE DISCONTINUITY ITERATIONS AND  1 ARE EQUILIBRIUM ITERATIONS.

 TIME INCREMENT COMPLETED  1.000E-04,  FRACTION OF STEP COMPLETED  4.585E-02
 STEP TIME COMPLETED       4.585E-04,  TOTAL TIME COMPLETED        4.585E-04


  INCREMENT    16 STARTS. ATTEMPT NUMBER  1, TIME INCREMENT  4.151E-05
 
	SYMMETRIC NEW DIRECT SPARSE SOLVER RUNNING ON
 	1 HOST x 1 MPI RANK PER HOST x 2 THREADS PER RANK
        NUMBER OF EQUATIONS:  228
        NUMBER OF RHS:        1
        NUMBER OF FLOPS:      7.018e+04
        SOLVER ELAPSED TIME:  1ms

               CONVERGENCE CHECKS FOR EQUILIBRIUM ITERATION     1


 AVERAGE FORCE                      1.168E+06   TIME AVG. FORCE       8.777E+05
 LARGEST SCALED RESIDUAL FORCE      2.608E-08   AT NODE         72   DOF  2
  CORRESPONDING RESIDUAL FORCE      2.608E-08
 LARGEST INCREMENT OF DISP.         3.321E-04   AT NODE          4   DOF  2
 LARGEST CORRECTION TO DISP.       -3.253E-19   AT NODE         29   DOF  2
          THE FORCE     EQUILIBRIUM RESPONSE WAS LINEAR IN THIS INCREMENT

 ITERATION SUMMARY FOR THE INCREMENT:   1 TOTAL ITERATIONS, OF WHICH
   0 ARE SEVERE DISCONTINUITY ITERATIONS AND  1 ARE EQUILIBRIUM ITERATIONS.

 TIME INCREMENT COMPLETED  4.151E-05,  FRACTION OF STEP COMPLETED  5.000E-02
 STEP TIME COMPLETED       5.000E-04,  TOTAL TIME COMPLETED        5.000E-04


  INCREMENT    17 STARTS. ATTEMPT NUMBER  1, TIME INCREMENT  1.000E-04
 
	SYMMETRIC NEW DIRECT SPARSE SOLVER RUNNING ON
 	1 HOST x 1 MPI RANK PER HOST x 2 THREADS PER RANK
        NUMBER OF EQUATIONS:  228
        NUMBER OF RHS:        1
        NUMBER OF FLOPS:      7.018e+04
        SOLVER ELAPSED TIME:  1ms

               CONVERGENCE CHECKS FOR EQUILIBRIUM ITERATION     1


 AVERAGE FORCE                      2.811E+06   TIME AVG. FORCE       9.914E+05
 LARGEST SCALED RESIDUAL FORCE     -5.821E-08   AT NODE         65   DOF  2
  CORRESPONDING RESIDUAL FORCE     -5.821E-08
 LARGEST INCREMENT OF DISP.         8.000E-04   AT NODE          4   DOF  2
 LARGEST CORRECTION TO DISP.        1.193E-18   AT NODE          4   DOF  2
          THE FORCE     EQUILIBRIUM RESPONSE WAS LINEAR IN THIS INCREMENT

 ITERATION SUMMARY FOR THE INCREMENT:   1 TOTAL ITERATIONS, OF WHICH
   0 ARE SEVERE DISCONTINUITY ITERATIONS AND  1 ARE EQUILIBRIUM ITERATIONS.

 TIME INCREMENT COMPLETED  1.000E-04,  FRACTION OF STEP COMPLETED  6.000E-02
 STEP TIME COMPLETED       6.000E-04,  TOTAL TIME COMPLETED        6.000E-04


  INCREMENT    18 STARTS. ATTEMPT NUMBER  1, TIME INCREMENT  1.000E-04
 
	SYMMETRIC NEW DIRECT SPARSE SOLVER RUNNING ON
 	1 HOST x 1 MPI RANK PER HOST x 2 THREADS PER RANK
        NUMBER OF EQUATIONS:  228
        NUMBER OF RHS:        1
        NUMBER OF FLOPS:      7.018e+04
        SOLVER ELAPSED TIME:  1ms

               CONVERGENCE CHECKS FOR EQUILIBRIUM ITERATION     1


 AVERAGE FORCE                      2.811E+06   TIME AVG. FORCE       1.092E+06
 LARGEST SCALED RESIDUAL FORCE      5.076E-08   AT NODE         65   DOF  2
  CORRESPONDING RESIDUAL FORCE      5.076E-08
 LARGEST INCREMENT OF DISP.         8.000E-04   AT NODE          4   DOF  2
 LARGEST CORRECTION TO DISP.       -1.841E-19   AT NODE         65   DOF  2
          THE FORCE     EQUILIBRIUM RESPONSE WAS LINEAR IN THIS INCREMENT

 ITERATION SUMMARY FOR THE INCREMENT:   1 TOTAL ITERATIONS, OF WHICH
   0 ARE SEVERE DISCONTINUITY ITERATIONS AND  1 ARE EQUILIBRIUM ITERATIONS.

 TIME INCREMENT COMPLETED  1.000E-04,  FRACTION OF STEP COMPLETED  7.000E-02
 STEP TIME COMPLETED       7.000E-04,  TOTAL TIME COMPLETED        7.000E-04


  INCREMENT    19 STARTS. ATTEMPT NUMBER  1, TIME INCREMENT  1.000E-04
 
	SYMMETRIC NEW DIRECT SPARSE SOLVER RUNNING ON
 	1 HOST x 1 MPI RANK PER HOST x 2 THREADS PER RANK
        NUMBER OF EQUATIONS:  228
        NUMBER OF RHS:        1
        NUMBER OF FLOPS:      7.018e+04
        SOLVER ELAPSED TIME:  1ms

               CONVERGENCE CHECKS FOR EQUILIBRIUM ITERATION     1


 AVERAGE FORCE                      2.811E+06   TIME AVG. FORCE       1.183E+06
 LARGEST SCALED RESIDUAL FORCE     -5.309E-08   AT NODE         58   DOF  2
  CORRESPONDING RESIDUAL FORCE     -5.309E-08
 LARGEST INCREMENT OF DISP.         8.000E-04   AT NODE          4   DOF  2
 LARGEST CORRECTION TO DISP.        1.159E-19   AT NODE          6   DOF  2
          THE FORCE     EQUILIBRIUM RESPONSE WAS LINEAR IN THIS INCREMENT

 ITERATION SUMMARY FOR THE INCREMENT:   1 TOTAL ITERATIONS, OF WHICH
   0 ARE SEVERE DISCONTINUITY ITERATIONS AND  1 ARE EQUILIBRIUM ITERATIONS.

 TIME INCREMENT COMPLETED  1.000E-04,  FRACTION OF STEP COMPLETED  8.000E-02
 STEP TIME COMPLETED       8.000E-04,  TOTAL TIME COMPLETED        8.000E-04


  INCREMENT    20 STARTS. ATTEMPT NUMBER  1, TIME INCREMENT  1.000E-04
 
	SYMMETRIC NEW DIRECT SPARSE SOLVER RUNNING ON
 	1 HOST x 1 MPI RANK PER HOST x 2 THREADS PER RANK
        NUMBER OF EQUATIONS:  228
        NUMBER OF RHS:        1
        NUMBER OF FLOPS:      7.018e+04
        SOLVER ELAPSED TIME:  1ms

               CONVERGENCE CHECKS FOR EQUILIBRIUM ITERATION     1


 AVERAGE FORCE                      2.811E+06   TIME AVG. FORCE       1.264E+06
 LARGEST SCALED RESIDUAL FORCE      5.309E-08   AT NODE         65   DOF  2
  CORRESPONDING RESIDUAL FORCE      5.309E-08
 LARGEST INCREMENT OF DISP.         8.000E-04   AT NODE          4   DOF  2
 LARGEST CORRECTION TO DISP.       -1.178E-19   AT NODE         58   DOF  2
          THE FORCE     EQUILIBRIUM RESPONSE WAS LINEAR IN THIS INCREMENT

 ITERATION SUMMARY FOR THE INCREMENT:   1 TOTAL ITERATIONS, OF WHICH
   0 ARE SEVERE DISCONTINUITY ITERATIONS AND  1 ARE EQUILIBRIUM ITERATIONS.

 TIME INCREMENT COMPLETED  1.000E-04,  FRACTION OF STEP COMPLETED  9.000E-02
 STEP TIME COMPLETED       9.000E-04,  TOTAL TIME COMPLETED        9.000E-04


  INCREMENT    21 STARTS. ATTEMPT NUMBER  1, TIME INCREMENT  1.000E-04
 
	SYMMETRIC NEW DIRECT SPARSE SOLVER RUNNING ON
 	1 HOST x 1 MPI RANK PER HOST x 2 THREADS PER RANK
        NUMBER OF EQUATIONS:  228
        NUMBER OF RHS:        1
        NUMBER OF FLOPS:      7.018e+04
        SOLVER ELAPSED TIME:  1ms

               CONVERGENCE CHECKS FOR EQUILIBRIUM ITERATION     1


 AVERAGE FORCE                      2.811E+06   TIME AVG. FORCE       1.338E+06
 LARGEST SCALED RESIDUAL FORCE     -5.588E-08   AT NODE        112   DOF  2
  CORRESPONDING RESIDUAL FORCE     -5.588E-08
 LARGEST INCREMENT OF DISP.         8.000E-04   AT NODE          4   DOF  2
 LARGEST CORRECTION TO DISP.        1.097E-19   AT NODE          6   DOF  2
          THE FORCE     EQUILIBRIUM RESPONSE WAS LINEAR IN THIS INCREMENT

 ITERATION SUMMARY FOR THE INCREMENT:   1 TOTAL ITERATIONS, OF WHICH
   0 ARE SEVERE DISCONTINUITY ITERATIONS AND  1 ARE EQUILIBRIUM ITERATIONS.

 TIME INCREMENT COMPLETED  1.000E-04,  FRACTION OF STEP COMPLETED  0.100    
 STEP TIME COMPLETED       1.000E-03,  TOTAL TIME COMPLETED        1.000E-03


  INCREMENT    22 STARTS. ATTEMPT NUMBER  1, TIME INCREMENT  1.000E-04
 
	SYMMETRIC NEW DIRECT SPARSE SOLVER RUNNING ON
 	1 HOST x 1 MPI RANK PER HOST x 2 THREADS PER RANK
        NUMBER OF EQUATIONS:  228
        NUMBER OF RHS:        1
        NUMBER OF FLOPS:      7.018e+04
        SOLVER ELAPSED TIME:  1ms

               CONVERGENCE CHECKS FOR EQUILIBRIUM ITERATION     1


 AVERAGE FORCE                      2.811E+06   TIME AVG. FORCE       1.405E+06
 LARGEST SCALED RESIDUAL FORCE      8.172E-08   AT NODE         66   DOF  2
  CORRESPONDING RESIDUAL FORCE      8.172E-08
 LARGEST INCREMENT OF DISP.         8.000E-04   AT NODE          4   DOF  2
 LARGEST CORRECTION TO DISP.       -1.735E-18   AT NODE         29   DOF  2
          THE FORCE     EQUILIBRIUM RESPONSE WAS LINEAR IN THIS INCREMENT

 ITERATION SUMMARY FOR THE INCREMENT:   1 TOTAL ITERATIONS, OF WHICH
   0 ARE SEVERE DISCONTINUITY ITERATIONS AND  1 ARE EQUILIBRIUM ITERATIONS.

 TIME INCREMENT COMPLETED  1.000E-04,  FRACTION OF STEP COMPLETED  0.110    
 STEP TIME COMPLETED       1.100E-03,  TOTAL TIME COMPLETED        1.100E-03


  INCREMENT    23 STARTS. ATTEMPT NUMBER  1, TIME INCREMENT  1.000E-04
 
	SYMMETRIC NEW DIRECT SPARSE SOLVER RUNNING ON
 	1 HOST x 1 MPI RANK PER HOST x 2 THREADS PER RANK
        NUMBER OF EQUATIONS:  228
        NUMBER OF RHS:        1
        NUMBER OF FLOPS:      7.018e+04
        SOLVER ELAPSED TIME:  1ms

               CONVERGENCE CHECKS FOR EQUILIBRIUM ITERATION     1


 AVERAGE FORCE                      2.811E+06   TIME AVG. FORCE       1.466E+06
 LARGEST SCALED RESIDUAL FORCE     -5.960E-08   AT NODE         74   DOF  2
  CORRESPONDING RESIDUAL FORCE     -5.960E-08
 LARGEST INCREMENT OF DISP.         8.000E-04   AT NODE          4   DOF  2
 LARGEST CORRECTION TO DISP.        1.737E-18   AT NODE         49   DOF  2
          THE FORCE     EQUILIBRIUM RESPONSE WAS LINEAR IN THIS INCREMENT

 ITERATION SUMMARY FOR THE INCREMENT:   1 TOTAL ITERATIONS, OF WHICH
   0 ARE SEVERE DISCONTINUITY ITERATIONS AND  1 ARE EQUILIBRIUM ITERATIONS.

 TIME INCREMENT COMPLETED  1.000E-04,  FRACTION OF STEP COMPLETED  0.120    
 STEP TIME COMPLETED       1.200E-03,  TOTAL TIME COMPLETED        1.200E-03


  INCREMENT    24 STARTS. ATTEMPT NUMBER  1, TIME INCREMENT  1.000E-04
 
	SYMMETRIC NEW DIRECT SPARSE SOLVER RUNNING ON
 	1 HOST x 1 MPI RANK PER HOST x 2 THREADS PER RANK
        NUMBER OF EQUATIONS:  228
        NUMBER OF RHS:        1
        NUMBER OF FLOPS:      7.018e+04
        SOLVER ELAPSED TIME:  1ms

               CONVERGENCE CHECKS FOR EQUILIBRIUM ITERATION     1


 AVERAGE FORCE                      2.811E+06   TIME AVG. FORCE       1.522E+06
 LARGEST SCALED RESIDUAL FORCE     -5.146E-08   AT NODE         45   DOF  2
  CORRESPONDING RESIDUAL FORCE     -5.146E-08
 LARGEST INCREMENT OF DISP.         8.000E-04   AT NODE          4   DOF  2
 LARGEST CORRECTION TO DISP.       -1.038E-19   AT NODE         74   DOF  2
          THE FORCE     EQUILIBRIUM RESPONSE WAS LINEAR IN THIS INCREMENT

 ITERATION SUMMARY FOR THE INCREMENT:   1 TOTAL ITERATIONS, OF WHICH
   0 ARE SEVERE DISCONTINUITY ITERATIONS AND  1 ARE EQUILIBRIUM ITERATIONS.

 TIME INCREMENT COMPLETED  1.000E-04,  FRACTION OF STEP COMPLETED  0.130    
 STEP TIME COMPLETED       1.300E-03,  TOTAL TIME COMPLETED        1.300E-03


  INCREMENT    25 STARTS. ATTEMPT NUMBER  1, TIME INCREMENT  1.000E-04
 
	SYMMETRIC NEW DIRECT SPARSE SOLVER RUNNING ON
 	1 HOST x 1 MPI RANK PER HOST x 2 THREADS PER RANK
        NUMBER OF EQUATIONS:  228
        NUMBER OF RHS:        1
        NUMBER OF FLOPS:      7.018e+04
        SOLVER ELAPSED TIME:  1ms

               CONVERGENCE CHECKS FOR EQUILIBRIUM ITERATION     1


 AVERAGE FORCE                      2.811E+06   TIME AVG. FORCE       1.574E+06
 LARGEST SCALED RESIDUAL FORCE     -4.098E-08   AT NODE        104   DOF  2
  CORRESPONDING RESIDUAL FORCE     -4.098E-08
 LARGEST INCREMENT OF DISP.         8.000E-04   AT NODE          4   DOF  2
 LARGEST CORRECTION TO DISP.        8.243E-20   AT NODE         66   DOF  2
          THE FORCE     EQUILIBRIUM RESPONSE WAS LINEAR IN THIS INCREMENT

 ITERATION SUMMARY FOR THE INCREMENT:   1 TOTAL ITERATIONS, OF WHICH
   0 ARE SEVERE DISCONTINUITY ITERATIONS AND  1 ARE EQUILIBRIUM ITERATIONS.

 TIME INCREMENT COMPLETED  1.000E-04,  FRACTION OF STEP COMPLETED  0.140    
 STEP TIME COMPLETED       1.400E-03,  TOTAL TIME COMPLETED        1.400E-03


  INCREMENT    26 STARTS. ATTEMPT NUMBER  1, TIME INCREMENT  1.000E-04
 
	SYMMETRIC NEW DIRECT SPARSE SOLVER RUNNING ON
 	1 HOST x 1 MPI RANK PER HOST x 2 THREADS PER RANK
        NUMBER OF EQUATIONS:  228
        NUMBER OF RHS:        1
        NUMBER OF FLOPS:      7.018e+04
        SOLVER ELAPSED TIME:  1ms

               CONVERGENCE CHECKS FOR EQUILIBRIUM ITERATION     1


 AVERAGE FORCE                      2.811E+06   TIME AVG. FORCE       1.621E+06
 LARGEST SCALED RESIDUAL FORCE      4.866E-08   AT NODE         66   DOF  2
  CORRESPONDING RESIDUAL FORCE      4.866E-08
 LARGEST INCREMENT OF DISP.         8.000E-04   AT NODE          4   DOF  2
 LARGEST CORRECTION TO DISP.        9.941E-20   AT NODE         25   DOF  2
          THE FORCE     EQUILIBRIUM RESPONSE WAS LINEAR IN THIS INCREMENT

 ITERATION SUMMARY FOR THE INCREMENT:   1 TOTAL ITERATIONS, OF WHICH
   0 ARE SEVERE DISCONTINUITY ITERATIONS AND  1 ARE EQUILIBRIUM ITERATIONS.

 TIME INCREMENT COMPLETED  1.000E-04,  FRACTION OF STEP COMPLETED  0.150    
 STEP TIME COMPLETED       1.500E-03,  TOTAL TIME COMPLETED        1.500E-03


  INCREMENT    27 STARTS. ATTEMPT NUMBER  1, TIME INCREMENT  1.000E-04
 
	SYMMETRIC NEW DIRECT SPARSE SOLVER RUNNING ON
 	1 HOST x 1 MPI RANK PER HOST x 2 THREADS PER RANK
        NUMBER OF EQUATIONS:  228
        NUMBER OF RHS:        1
        NUMBER OF FLOPS:      7.018e+04
        SOLVER ELAPSED TIME:  1ms

               CONVERGENCE CHECKS FOR EQUILIBRIUM ITERATION     1


 AVERAGE FORCE                      2.811E+06   TIME AVG. FORCE       1.665E+06
 LARGEST SCALED RESIDUAL FORCE      3.818E-08   AT NODE         49   DOF  2
  CORRESPONDING RESIDUAL FORCE      3.818E-08
 LARGEST INCREMENT OF DISP.         8.000E-04   AT NODE          4   DOF  2
 LARGEST CORRECTION TO DISP.        8.773E-20   AT NODE         66   DOF  2
          THE FORCE     EQUILIBRIUM RESPONSE WAS LINEAR IN THIS INCREMENT

 ITERATION SUMMARY FOR THE INCREMENT:   1 TOTAL ITERATIONS, OF WHICH
   0 ARE SEVERE DISCONTINUITY ITERATIONS AND  1 ARE EQUILIBRIUM ITERATIONS.

 TIME INCREMENT COMPLETED  1.000E-04,  FRACTION OF STEP COMPLETED  0.160    
 STEP TIME COMPLETED       1.600E-03,  TOTAL TIME COMPLETED        1.600E-03


  INCREMENT    28 STARTS. ATTEMPT NUMBER  1, TIME INCREMENT  1.000E-04
 
	SYMMETRIC NEW DIRECT SPARSE SOLVER RUNNING ON
 	1 HOST x 1 MPI RANK PER HOST x 2 THREADS PER RANK
        NUMBER OF EQUATIONS:  228
        NUMBER OF RHS:        1
        NUMBER OF FLOPS:      7.018e+04
        SOLVER ELAPSED TIME:  1ms

               CONVERGENCE CHECKS FOR EQUILIBRIUM ITERATION     1


 AVERAGE FORCE                      2.811E+06   TIME AVG. FORCE       1.706E+06
 LARGEST SCALED RESIDUAL FORCE      5.122E-08   AT NODE         65   DOF  2
  CORRESPONDING RESIDUAL FORCE      5.122E-08
 LARGEST INCREMENT OF DISP.         8.000E-04   AT NODE          4   DOF  2
 LARGEST CORRECTION TO DISP.        8.689E-20   AT NODE        104   DOF  2
          THE FORCE     EQUILIBRIUM RESPONSE WAS LINEAR IN THIS INCREMENT

 ITERATION SUMMARY FOR THE INCREMENT:   1 TOTAL ITERATIONS, OF WHICH
   0 ARE SEVERE DISCONTINUITY ITERATIONS AND  1 ARE EQUILIBRIUM ITERATIONS.

 TIME INCREMENT COMPLETED  1.000E-04,  FRACTION OF STEP COMPLETED  0.170    
 STEP TIME COMPLETED       1.700E-03,  TOTAL TIME COMPLETED        1.700E-03


  INCREMENT    29 STARTS. ATTEMPT NUMBER  1, TIME INCREMENT  1.000E-04
 
	SYMMETRIC NEW DIRECT SPARSE SOLVER RUNNING ON
 	1 HOST x 1 MPI RANK PER HOST x 2 THREADS PER RANK
        NUMBER OF EQUATIONS:  228
        NUMBER OF RHS:        1
        NUMBER OF FLOPS:      7.018e+04
        SOLVER ELAPSED TIME:  1ms

               CONVERGENCE CHECKS FOR EQUILIBRIUM ITERATION     1


 AVERAGE FORCE                      2.811E+06   TIME AVG. FORCE       1.744E+06
 LARGEST SCALED RESIDUAL FORCE      4.005E-08   AT NODE        102   DOF  2
  CORRESPONDING RESIDUAL FORCE      4.005E-08
 LARGEST INCREMENT OF DISP.         8.000E-04   AT NODE          4   DOF  2
 LARGEST CORRECTION TO DISP.       -9.340E-20   AT NODE         56   DOF  2
          THE FORCE     EQUILIBRIUM RESPONSE WAS LINEAR IN THIS INCREMENT

 ITERATION SUMMARY FOR THE INCREMENT:   1 TOTAL ITERATIONS, OF WHICH
   0 ARE SEVERE DISCONTINUITY ITERATIONS AND  1 ARE EQUILIBRIUM ITERATIONS.

 TIME INCREMENT COMPLETED  1.000E-04,  FRACTION OF STEP COMPLETED  0.180    
 STEP TIME COMPLETED       1.800E-03,  TOTAL TIME COMPLETED        1.800E-03


  INCREMENT    30 STARTS. ATTEMPT NUMBER  1, TIME INCREMENT  1.000E-04
 
	SYMMETRIC NEW DIRECT SPARSE SOLVER RUNNING ON
 	1 HOST x 1 MPI RANK PER HOST x 2 THREADS PER RANK
        NUMBER OF EQUATIONS:  228
        NUMBER OF RHS:        1
        NUMBER OF FLOPS:      7.018e+04
        SOLVER ELAPSED TIME:  1ms

               CONVERGENCE CHECKS FOR EQUILIBRIUM ITERATION     1


 AVERAGE FORCE                      2.811E+06   TIME AVG. FORCE       1.780E+06
 LARGEST SCALED RESIDUAL FORCE     -5.541E-08   AT NODE         58   DOF  2
  CORRESPONDING RESIDUAL FORCE     -5.541E-08
 LARGEST INCREMENT OF DISP.         8.000E-04   AT NODE          4   DOF  2
 LARGEST CORRECTION TO DISP.        1.099E-19   AT NODE         25   DOF  2
          THE FORCE     EQUILIBRIUM RESPONSE WAS LINEAR IN THIS INCREMENT

 ITERATION SUMMARY FOR THE INCREMENT:   1 TOTAL ITERATIONS, OF WHICH
   0 ARE SEVERE DISCONTINUITY ITERATIONS AND  1 ARE EQUILIBRIUM ITERATIONS.

 TIME INCREMENT COMPLETED  1.000E-04,  FRACTION OF STEP COMPLETED  0.190    
 STEP TIME COMPLETED       1.900E-03,  TOTAL TIME COMPLETED        1.900E-03


  INCREMENT    31 STARTS. ATTEMPT NUMBER  1, TIME INCREMENT  1.000E-04
 
	SYMMETRIC NEW DIRECT SPARSE SOLVER RUNNING ON
 	1 HOST x 1 MPI RANK PER HOST x 2 THREADS PER RANK
        NUMBER OF EQUATIONS:  228
        NUMBER OF RHS:        1
        NUMBER OF FLOPS:      7.018e+04
        SOLVER ELAPSED TIME:  1ms

               CONVERGENCE CHECKS FOR EQUILIBRIUM ITERATION     1


 AVERAGE FORCE                      2.814E+06   TIME AVG. FORCE       1.813E+06
 LARGEST SCALED RESIDUAL FORCE      4.750E-08   AT NODE         63   DOF  2
  CORRESPONDING RESIDUAL FORCE      4.750E-08
 LARGEST INCREMENT OF DISP.         8.000E-04   AT NODE          4   DOF  2
 LARGEST CORRECTION TO DISP.       -3.469E-18   AT NODE         29   DOF  2
          THE FORCE     EQUILIBRIUM RESPONSE WAS LINEAR IN THIS INCREMENT

 ITERATION SUMMARY FOR THE INCREMENT:   1 TOTAL ITERATIONS, OF WHICH
   0 ARE SEVERE DISCONTINUITY ITERATIONS AND  1 ARE EQUILIBRIUM ITERATIONS.

 TIME INCREMENT COMPLETED  1.000E-04,  FRACTION OF STEP COMPLETED  0.200    
 STEP TIME COMPLETED       2.000E-03,  TOTAL TIME COMPLETED        2.000E-03


  INCREMENT    32 STARTS. ATTEMPT NUMBER  1, TIME INCREMENT  1.000E-04
 
	SYMMETRIC NEW DIRECT SPARSE SOLVER RUNNING ON
 	1 HOST x 1 MPI RANK PER HOST x 2 THREADS PER RANK
        NUMBER OF EQUATIONS:  228
        NUMBER OF RHS:        1
        NUMBER OF FLOPS:      7.018e+04
        SOLVER ELAPSED TIME:  1ms

               CONVERGENCE CHECKS FOR EQUILIBRIUM ITERATION     1


 AVERAGE FORCE                      2.814E+06   TIME AVG. FORCE       1.845E+06
 LARGEST SCALED RESIDUAL FORCE      7.171E-08   AT NODE         76   DOF  2
  CORRESPONDING RESIDUAL FORCE      7.171E-08
 LARGEST INCREMENT OF DISP.         8.000E-04   AT NODE          4   DOF  2
 LARGEST CORRECTION TO DISP.        1.735E-18   AT NODE          4   DOF  2
          THE FORCE     EQUILIBRIUM RESPONSE WAS LINEAR IN THIS INCREMENT

 ITERATION SUMMARY FOR THE INCREMENT:   1 TOTAL ITERATIONS, OF WHICH
   0 ARE SEVERE DISCONTINUITY ITERATIONS AND  1 ARE EQUILIBRIUM ITERATIONS.

 TIME INCREMENT COMPLETED  1.000E-04,  FRACTION OF STEP COMPLETED  0.210    
 STEP TIME COMPLETED       2.100E-03,  TOTAL TIME COMPLETED        2.100E-03


  INCREMENT    33 STARTS. ATTEMPT NUMBER  1, TIME INCREMENT  1.000E-04
 
	SYMMETRIC NEW DIRECT SPARSE SOLVER RUNNING ON
 	1 HOST x 1 MPI RANK PER HOST x 2 THREADS PER RANK
        NUMBER OF EQUATIONS:  228
        NUMBER OF RHS:        1
        NUMBER OF FLOPS:      7.018e+04
        SOLVER ELAPSED TIME:  1ms

               CONVERGENCE CHECKS FOR EQUILIBRIUM ITERATION     1


 AVERAGE FORCE                      2.814E+06   TIME AVG. FORCE       1.874E+06
 LARGEST SCALED RESIDUAL FORCE      4.750E-08   AT NODE         44   DOF  2
  CORRESPONDING RESIDUAL FORCE      4.750E-08
 LARGEST INCREMENT OF DISP.         8.000E-04   AT NODE          4   DOF  2
 LARGEST CORRECTION TO DISP.       -2.033E-19   AT NODE          6   DOF  2
          THE FORCE     EQUILIBRIUM RESPONSE WAS LINEAR IN THIS INCREMENT

 ITERATION SUMMARY FOR THE INCREMENT:   1 TOTAL ITERATIONS, OF WHICH
   0 ARE SEVERE DISCONTINUITY ITERATIONS AND  1 ARE EQUILIBRIUM ITERATIONS.

 TIME INCREMENT COMPLETED  1.000E-04,  FRACTION OF STEP COMPLETED  0.220    
 STEP TIME COMPLETED       2.200E-03,  TOTAL TIME COMPLETED        2.200E-03


  INCREMENT    34 STARTS. ATTEMPT NUMBER  1, TIME INCREMENT  1.000E-04
 
	SYMMETRIC NEW DIRECT SPARSE SOLVER RUNNING ON
 	1 HOST x 1 MPI RANK PER HOST x 2 THREADS PER RANK
        NUMBER OF EQUATIONS:  228
        NUMBER OF RHS:        1
        NUMBER OF FLOPS:      7.018e+04
        SOLVER ELAPSED TIME:  1ms

               CONVERGENCE CHECKS FOR EQUILIBRIUM ITERATION     1


 AVERAGE FORCE                      2.814E+06   TIME AVG. FORCE       1.902E+06
 LARGEST SCALED RESIDUAL FORCE     -5.309E-08   AT NODE         83   DOF  2
  CORRESPONDING RESIDUAL FORCE     -5.309E-08
 LARGEST INCREMENT OF DISP.         8.000E-04   AT NODE          4   DOF  2
 LARGEST CORRECTION TO DISP.        9.940E-20   AT NODE          6   DOF  2
          THE FORCE     EQUILIBRIUM RESPONSE WAS LINEAR IN THIS INCREMENT

 ITERATION SUMMARY FOR THE INCREMENT:   1 TOTAL ITERATIONS, OF WHICH
   0 ARE SEVERE DISCONTINUITY ITERATIONS AND  1 ARE EQUILIBRIUM ITERATIONS.

 TIME INCREMENT COMPLETED  1.000E-04,  FRACTION OF STEP COMPLETED  0.230    
 STEP TIME COMPLETED       2.300E-03,  TOTAL TIME COMPLETED        2.300E-03


  INCREMENT    35 STARTS. ATTEMPT NUMBER  1, TIME INCREMENT  1.000E-04
 
	SYMMETRIC NEW DIRECT SPARSE SOLVER RUNNING ON
 	1 HOST x 1 MPI RANK PER HOST x 2 THREADS PER RANK
        NUMBER OF EQUATIONS:  228
        NUMBER OF RHS:        1
        NUMBER OF FLOPS:      7.018e+04
        SOLVER ELAPSED TIME:  1ms

               CONVERGENCE CHECKS FOR EQUILIBRIUM ITERATION     1


 AVERAGE FORCE                      2.814E+06   TIME AVG. FORCE       1.928E+06
 LARGEST SCALED RESIDUAL FORCE      7.218E-08   AT NODE         90   DOF  2
  CORRESPONDING RESIDUAL FORCE      7.218E-08
 LARGEST INCREMENT OF DISP.         8.000E-04   AT NODE          4   DOF  2
 LARGEST CORRECTION TO DISP.       -7.898E-20   AT NODE         83   DOF  2
          THE FORCE     EQUILIBRIUM RESPONSE WAS LINEAR IN THIS INCREMENT

 ITERATION SUMMARY FOR THE INCREMENT:   1 TOTAL ITERATIONS, OF WHICH
   0 ARE SEVERE DISCONTINUITY ITERATIONS AND  1 ARE EQUILIBRIUM ITERATIONS.

 TIME INCREMENT COMPLETED  1.000E-04,  FRACTION OF STEP COMPLETED  0.240    
 STEP TIME COMPLETED       2.400E-03,  TOTAL TIME COMPLETED        2.400E-03


  INCREMENT    36 STARTS. ATTEMPT NUMBER  1, TIME INCREMENT  1.000E-04
 
	SYMMETRIC NEW DIRECT SPARSE SOLVER RUNNING ON
 	1 HOST x 1 MPI RANK PER HOST x 2 THREADS PER RANK
        NUMBER OF EQUATIONS:  228
        NUMBER OF RHS:        1
        NUMBER OF FLOPS:      7.018e+04
        SOLVER ELAPSED TIME:  1ms

               CONVERGENCE CHECKS FOR EQUILIBRIUM ITERATION     1


 AVERAGE FORCE                      2.814E+06   TIME AVG. FORCE       1.952E+06
 LARGEST SCALED RESIDUAL FORCE     -5.309E-08   AT NODE         83   DOF  2
  CORRESPONDING RESIDUAL FORCE     -5.309E-08
 LARGEST INCREMENT OF DISP.         8.000E-04   AT NODE          4   DOF  2
 LARGEST CORRECTION TO DISP.        1.177E-19   AT NODE         90   DOF  2
          THE FORCE     EQUILIBRIUM RESPONSE WAS LINEAR IN THIS INCREMENT

 ITERATION SUMMARY FOR THE INCREMENT:   1 TOTAL ITERATIONS, OF WHICH
   0 ARE SEVERE DISCONTINUITY ITERATIONS AND  1 ARE EQUILIBRIUM ITERATIONS.

 TIME INCREMENT COMPLETED  1.000E-04,  FRACTION OF STEP COMPLETED  0.250    
 STEP TIME COMPLETED       2.500E-03,  TOTAL TIME COMPLETED        2.500E-03


  INCREMENT    37 STARTS. ATTEMPT NUMBER  1, TIME INCREMENT  1.000E-04
 
	SYMMETRIC NEW DIRECT SPARSE SOLVER RUNNING ON
 	1 HOST x 1 MPI RANK PER HOST x 2 THREADS PER RANK
        NUMBER OF EQUATIONS:  228
        NUMBER OF RHS:        1
        NUMBER OF FLOPS:      7.018e+04
        SOLVER ELAPSED TIME:  1ms

               CONVERGENCE CHECKS FOR EQUILIBRIUM ITERATION     1


 AVERAGE FORCE                      2.814E+06   TIME AVG. FORCE       1.976E+06
 LARGEST SCALED RESIDUAL FORCE      4.750E-08   AT NODE         49   DOF  2
  CORRESPONDING RESIDUAL FORCE      4.750E-08
 LARGEST INCREMENT OF DISP.         8.000E-04   AT NODE          4   DOF  2
 LARGEST CORRECTION TO DISP.        9.372E-20   AT NODE         54   DOF  2
          THE FORCE     EQUILIBRIUM RESPONSE WAS LINEAR IN THIS INCREMENT

 ITERATION SUMMARY FOR THE INCREMENT:   1 TOTAL ITERATIONS, OF WHICH
   0 ARE SEVERE DISCONTINUITY ITERATIONS AND  1 ARE EQUILIBRIUM ITERATIONS.

 TIME INCREMENT COMPLETED  1.000E-04,  FRACTION OF STEP COMPLETED  0.260    
 STEP TIME COMPLETED       2.600E-03,  TOTAL TIME COMPLETED        2.600E-03


  INCREMENT    38 STARTS. ATTEMPT NUMBER  1, TIME INCREMENT  1.000E-04
 
	SYMMETRIC NEW DIRECT SPARSE SOLVER RUNNING ON
 	1 HOST x 1 MPI RANK PER HOST x 2 THREADS PER RANK
        NUMBER OF EQUATIONS:  228
        NUMBER OF RHS:        1
        NUMBER OF FLOPS:      7.018e+04
        SOLVER ELAPSED TIME:  1ms

               CONVERGENCE CHECKS FOR EQUILIBRIUM ITERATION     1


 AVERAGE FORCE                      2.814E+06   TIME AVG. FORCE       1.998E+06
 LARGEST SCALED RESIDUAL FORCE      5.402E-08   AT NODE         54   DOF  2
  CORRESPONDING RESIDUAL FORCE      5.402E-08
 LARGEST INCREMENT OF DISP.         8.000E-04   AT NODE          4   DOF  2
 LARGEST CORRECTION TO DISP.       -9.455E-20   AT NODE         62   DOF  2
          THE FORCE     EQUILIBRIUM RESPONSE WAS LINEAR IN THIS INCREMENT

 ITERATION SUMMARY FOR THE INCREMENT:   1 TOTAL ITERATIONS, OF WHICH
   0 ARE SEVERE DISCONTINUITY ITERATIONS AND  1 ARE EQUILIBRIUM ITERATIONS.

 TIME INCREMENT COMPLETED  1.000E-04,  FRACTION OF STEP COMPLETED  0.270    
 STEP TIME COMPLETED       2.700E-03,  TOTAL TIME COMPLETED        2.700E-03


  INCREMENT    39 STARTS. ATTEMPT NUMBER  1, TIME INCREMENT  1.000E-04
 
	SYMMETRIC NEW DIRECT SPARSE SOLVER RUNNING ON
 	1 HOST x 1 MPI RANK PER HOST x 2 THREADS PER RANK
        NUMBER OF EQUATIONS:  228
        NUMBER OF RHS:        1
        NUMBER OF FLOPS:      7.018e+04
        SOLVER ELAPSED TIME:  1ms

               CONVERGENCE CHECKS FOR EQUILIBRIUM ITERATION     1


 AVERAGE FORCE                      2.814E+06   TIME AVG. FORCE       2.018E+06
 LARGEST SCALED RESIDUAL FORCE     -5.215E-08   AT NODE         83   DOF  2
  CORRESPONDING RESIDUAL FORCE     -5.215E-08
 LARGEST INCREMENT OF DISP.         8.000E-04   AT NODE          4   DOF  2
 LARGEST CORRECTION TO DISP.        9.999E-20   AT NODE         54   DOF  2
          THE FORCE     EQUILIBRIUM RESPONSE WAS LINEAR IN THIS INCREMENT

 ITERATION SUMMARY FOR THE INCREMENT:   1 TOTAL ITERATIONS, OF WHICH
   0 ARE SEVERE DISCONTINUITY ITERATIONS AND  1 ARE EQUILIBRIUM ITERATIONS.

 TIME INCREMENT COMPLETED  1.000E-04,  FRACTION OF STEP COMPLETED  0.280    
 STEP TIME COMPLETED       2.800E-03,  TOTAL TIME COMPLETED        2.800E-03


  INCREMENT    40 STARTS. ATTEMPT NUMBER  1, TIME INCREMENT  1.000E-04
 
	SYMMETRIC NEW DIRECT SPARSE SOLVER RUNNING ON
 	1 HOST x 1 MPI RANK PER HOST x 2 THREADS PER RANK
        NUMBER OF EQUATIONS:  228
        NUMBER OF RHS:        1
        NUMBER OF FLOPS:      7.018e+04
        SOLVER ELAPSED TIME:  1ms

               CONVERGENCE CHECKS FOR EQUILIBRIUM ITERATION     1


 AVERAGE FORCE                      2.814E+06   TIME AVG. FORCE       2.038E+06
 LARGEST SCALED RESIDUAL FORCE      5.029E-08   AT NODE         54   DOF  2
  CORRESPONDING RESIDUAL FORCE      5.029E-08
 LARGEST INCREMENT OF DISP.         8.000E-04   AT NODE          4   DOF  2
 LARGEST CORRECTION TO DISP.       -8.502E-20   AT NODE         39   DOF  2
          THE FORCE     EQUILIBRIUM RESPONSE WAS LINEAR IN THIS INCREMENT

 ITERATION SUMMARY FOR THE INCREMENT:   1 TOTAL ITERATIONS, OF WHICH
   0 ARE SEVERE DISCONTINUITY ITERATIONS AND  1 ARE EQUILIBRIUM ITERATIONS.

 TIME INCREMENT COMPLETED  1.000E-04,  FRACTION OF STEP COMPLETED  0.290    
 STEP TIME COMPLETED       2.900E-03,  TOTAL TIME COMPLETED        2.900E-03


  INCREMENT    41 STARTS. ATTEMPT NUMBER  1, TIME INCREMENT  1.000E-04
 
	SYMMETRIC NEW DIRECT SPARSE SOLVER RUNNING ON
 	1 HOST x 1 MPI RANK PER HOST x 2 THREADS PER RANK
        NUMBER OF EQUATIONS:  228
        NUMBER OF RHS:        1
        NUMBER OF FLOPS:      7.018e+04
        SOLVER ELAPSED TIME:  1ms

               CONVERGENCE CHECKS FOR EQUILIBRIUM ITERATION     1


 AVERAGE FORCE                      2.814E+06   TIME AVG. FORCE       2.057E+06
 LARGEST SCALED RESIDUAL FORCE     -5.215E-08   AT NODE         83   DOF  2
  CORRESPONDING RESIDUAL FORCE     -5.215E-08
 LARGEST INCREMENT OF DISP.         8.000E-04   AT NODE          4   DOF  2
 LARGEST CORRECTION TO DISP.        8.987E-20   AT NODE         54   DOF  2
          THE FORCE     EQUILIBRIUM RESPONSE WAS LINEAR IN THIS INCREMENT

 ITERATION SUMMARY FOR THE INCREMENT:   1 TOTAL ITERATIONS, OF WHICH
   0 ARE SEVERE DISCONTINUITY ITERATIONS AND  1 ARE EQUILIBRIUM ITERATIONS.

 TIME INCREMENT COMPLETED  1.000E-04,  FRACTION OF STEP COMPLETED  0.300    
 STEP TIME COMPLETED       3.000E-03,  TOTAL TIME COMPLETED        3.000E-03


  INCREMENT    42 STARTS. ATTEMPT NUMBER  1, TIME INCREMENT  1.000E-04
 
	SYMMETRIC NEW DIRECT SPARSE SOLVER RUNNING ON
 	1 HOST x 1 MPI RANK PER HOST x 2 THREADS PER RANK
        NUMBER OF EQUATIONS:  228
        NUMBER OF RHS:        1
        NUMBER OF FLOPS:      7.018e+04
        SOLVER ELAPSED TIME:  1ms

               CONVERGENCE CHECKS FOR EQUILIBRIUM ITERATION     1


 AVERAGE FORCE                      2.814E+06   TIME AVG. FORCE       2.075E+06
 LARGEST SCALED RESIDUAL FORCE      5.495E-08   AT NODE         44   DOF  2
  CORRESPONDING RESIDUAL FORCE      5.495E-08
 LARGEST INCREMENT OF DISP.         8.000E-04   AT NODE          4   DOF  2
 LARGEST CORRECTION TO DISP.        8.275E-20   AT NODE         49   DOF  2
          THE FORCE     EQUILIBRIUM RESPONSE WAS LINEAR IN THIS INCREMENT

 ITERATION SUMMARY FOR THE INCREMENT:   1 TOTAL ITERATIONS, OF WHICH
   0 ARE SEVERE DISCONTINUITY ITERATIONS AND  1 ARE EQUILIBRIUM ITERATIONS.

 TIME INCREMENT COMPLETED  1.000E-04,  FRACTION OF STEP COMPLETED  0.310    
 STEP TIME COMPLETED       3.100E-03,  TOTAL TIME COMPLETED        3.100E-03


  INCREMENT    43 STARTS. ATTEMPT NUMBER  1, TIME INCREMENT  1.000E-04
 
	SYMMETRIC NEW DIRECT SPARSE SOLVER RUNNING ON
 	1 HOST x 1 MPI RANK PER HOST x 2 THREADS PER RANK
        NUMBER OF EQUATIONS:  228
        NUMBER OF RHS:        1
        NUMBER OF FLOPS:      7.018e+04
        SOLVER ELAPSED TIME:  1ms

               CONVERGENCE CHECKS FOR EQUILIBRIUM ITERATION     1


 AVERAGE FORCE                      2.814E+06   TIME AVG. FORCE       2.092E+06
 LARGEST SCALED RESIDUAL FORCE     -5.495E-08   AT NODE         44   DOF  2
  CORRESPONDING RESIDUAL FORCE     -5.495E-08
 LARGEST INCREMENT OF DISP.         8.000E-04   AT NODE          4   DOF  2
 LARGEST CORRECTION TO DISP.       -7.585E-20   AT NODE         39   DOF  2
          THE FORCE     EQUILIBRIUM RESPONSE WAS LINEAR IN THIS INCREMENT

 ITERATION SUMMARY FOR THE INCREMENT:   1 TOTAL ITERATIONS, OF WHICH
   0 ARE SEVERE DISCONTINUITY ITERATIONS AND  1 ARE EQUILIBRIUM ITERATIONS.

 TIME INCREMENT COMPLETED  1.000E-04,  FRACTION OF STEP COMPLETED  0.320    
 STEP TIME COMPLETED       3.200E-03,  TOTAL TIME COMPLETED        3.200E-03


  INCREMENT    44 STARTS. ATTEMPT NUMBER  1, TIME INCREMENT  1.000E-04
 
	SYMMETRIC NEW DIRECT SPARSE SOLVER RUNNING ON
 	1 HOST x 1 MPI RANK PER HOST x 2 THREADS PER RANK
        NUMBER OF EQUATIONS:  228
        NUMBER OF RHS:        1
        NUMBER OF FLOPS:      7.018e+04
        SOLVER ELAPSED TIME:  1ms

               CONVERGENCE CHECKS FOR EQUILIBRIUM ITERATION     1


 AVERAGE FORCE                      2.814E+06   TIME AVG. FORCE       2.109E+06
 LARGEST SCALED RESIDUAL FORCE      5.495E-08   AT NODE         44   DOF  2
  CORRESPONDING RESIDUAL FORCE      5.495E-08
 LARGEST INCREMENT OF DISP.         8.000E-04   AT NODE          4   DOF  2
 LARGEST CORRECTION TO DISP.        1.049E-19   AT NODE         54   DOF  2
          THE FORCE     EQUILIBRIUM RESPONSE WAS LINEAR IN THIS INCREMENT

 ITERATION SUMMARY FOR THE INCREMENT:   1 TOTAL ITERATIONS, OF WHICH
   0 ARE SEVERE DISCONTINUITY ITERATIONS AND  1 ARE EQUILIBRIUM ITERATIONS.

 TIME INCREMENT COMPLETED  1.000E-04,  FRACTION OF STEP COMPLETED  0.330    
 STEP TIME COMPLETED       3.300E-03,  TOTAL TIME COMPLETED        3.300E-03


  INCREMENT    45 STARTS. ATTEMPT NUMBER  1, TIME INCREMENT  1.000E-04
 
	SYMMETRIC NEW DIRECT SPARSE SOLVER RUNNING ON
 	1 HOST x 1 MPI RANK PER HOST x 2 THREADS PER RANK
        NUMBER OF EQUATIONS:  228
        NUMBER OF RHS:        1
        NUMBER OF FLOPS:      7.018e+04
        SOLVER ELAPSED TIME:  1ms

               CONVERGENCE CHECKS FOR EQUILIBRIUM ITERATION     1


 AVERAGE FORCE                      2.814E+06   TIME AVG. FORCE       2.125E+06
 LARGEST SCALED RESIDUAL FORCE     -5.495E-08   AT NODE         44   DOF  2
  CORRESPONDING RESIDUAL FORCE     -5.495E-08
 LARGEST INCREMENT OF DISP.         8.000E-04   AT NODE          4   DOF  2
 LARGEST CORRECTION TO DISP.       -9.142E-20   AT NODE         83   DOF  2
          THE FORCE     EQUILIBRIUM RESPONSE WAS LINEAR IN THIS INCREMENT

 ITERATION SUMMARY FOR THE INCREMENT:   1 TOTAL ITERATIONS, OF WHICH
   0 ARE SEVERE DISCONTINUITY ITERATIONS AND  1 ARE EQUILIBRIUM ITERATIONS.

 TIME INCREMENT COMPLETED  1.000E-04,  FRACTION OF STEP COMPLETED  0.340    
 STEP TIME COMPLETED       3.400E-03,  TOTAL TIME COMPLETED        3.400E-03


  INCREMENT    46 STARTS. ATTEMPT NUMBER  1, TIME INCREMENT  1.000E-04
 
	SYMMETRIC NEW DIRECT SPARSE SOLVER RUNNING ON
 	1 HOST x 1 MPI RANK PER HOST x 2 THREADS PER RANK
        NUMBER OF EQUATIONS:  228
        NUMBER OF RHS:        1
        NUMBER OF FLOPS:      7.018e+04
        SOLVER ELAPSED TIME:  1ms

               CONVERGENCE CHECKS FOR EQUILIBRIUM ITERATION     1


 AVERAGE FORCE                      2.814E+06   TIME AVG. FORCE       2.139E+06
 LARGEST SCALED RESIDUAL FORCE      5.215E-08   AT NODE         54   DOF  2
  CORRESPONDING RESIDUAL FORCE      5.215E-08
 LARGEST INCREMENT OF DISP.         8.000E-04   AT NODE          4   DOF  2
 LARGEST CORRECTION TO DISP.       -9.394E-20   AT NODE         44   DOF  2
          THE FORCE     EQUILIBRIUM RESPONSE WAS LINEAR IN THIS INCREMENT

 ITERATION SUMMARY FOR THE INCREMENT:   1 TOTAL ITERATIONS, OF WHICH
   0 ARE SEVERE DISCONTINUITY ITERATIONS AND  1 ARE EQUILIBRIUM ITERATIONS.

 TIME INCREMENT COMPLETED  1.000E-04,  FRACTION OF STEP COMPLETED  0.350    
 STEP TIME COMPLETED       3.500E-03,  TOTAL TIME COMPLETED        3.500E-03


  INCREMENT    47 STARTS. ATTEMPT NUMBER  1, TIME INCREMENT  1.000E-04
 
	SYMMETRIC NEW DIRECT SPARSE SOLVER RUNNING ON
 	1 HOST x 1 MPI RANK PER HOST x 2 THREADS PER RANK
        NUMBER OF EQUATIONS:  228
        NUMBER OF RHS:        1
        NUMBER OF FLOPS:      7.018e+04
        SOLVER ELAPSED TIME:  1ms

               CONVERGENCE CHECKS FOR EQUILIBRIUM ITERATION     1


 AVERAGE FORCE                      2.814E+06   TIME AVG. FORCE       2.154E+06
 LARGEST SCALED RESIDUAL FORCE     -5.029E-08   AT NODE         83   DOF  2
  CORRESPONDING RESIDUAL FORCE     -5.029E-08
 LARGEST INCREMENT OF DISP.         8.000E-04   AT NODE          4   DOF  2
 LARGEST CORRECTION TO DISP.        9.883E-20   AT NODE         54   DOF  2
          THE FORCE     EQUILIBRIUM RESPONSE WAS LINEAR IN THIS INCREMENT

 ITERATION SUMMARY FOR THE INCREMENT:   1 TOTAL ITERATIONS, OF WHICH
   0 ARE SEVERE DISCONTINUITY ITERATIONS AND  1 ARE EQUILIBRIUM ITERATIONS.

 TIME INCREMENT COMPLETED  1.000E-04,  FRACTION OF STEP COMPLETED  0.360    
 STEP TIME COMPLETED       3.600E-03,  TOTAL TIME COMPLETED        3.600E-03


  INCREMENT    48 STARTS. ATTEMPT NUMBER  1, TIME INCREMENT  1.000E-04
 
	SYMMETRIC NEW DIRECT SPARSE SOLVER RUNNING ON
 	1 HOST x 1 MPI RANK PER HOST x 2 THREADS PER RANK
        NUMBER OF EQUATIONS:  228
        NUMBER OF RHS:        1
        NUMBER OF FLOPS:      7.018e+04
        SOLVER ELAPSED TIME:  1ms

               CONVERGENCE CHECKS FOR EQUILIBRIUM ITERATION     1


 AVERAGE FORCE                      2.814E+06   TIME AVG. FORCE       2.168E+06
 LARGEST SCALED RESIDUAL FORCE      5.402E-08   AT NODE         54   DOF  2
  CORRESPONDING RESIDUAL FORCE      5.402E-08
 LARGEST INCREMENT OF DISP.         8.000E-04   AT NODE          4   DOF  2
 LARGEST CORRECTION TO DISP.       -9.133E-20   AT NODE         39   DOF  2
          THE FORCE     EQUILIBRIUM RESPONSE WAS LINEAR IN THIS INCREMENT

 ITERATION SUMMARY FOR THE INCREMENT:   1 TOTAL ITERATIONS, OF WHICH
   0 ARE SEVERE DISCONTINUITY ITERATIONS AND  1 ARE EQUILIBRIUM ITERATIONS.

 TIME INCREMENT COMPLETED  1.000E-04,  FRACTION OF STEP COMPLETED  0.370    
 STEP TIME COMPLETED       3.700E-03,  TOTAL TIME COMPLETED        3.700E-03


  INCREMENT    49 STARTS. ATTEMPT NUMBER  1, TIME INCREMENT  1.000E-04
 
	SYMMETRIC NEW DIRECT SPARSE SOLVER RUNNING ON
 	1 HOST x 1 MPI RANK PER HOST x 2 THREADS PER RANK
        NUMBER OF EQUATIONS:  228
        NUMBER OF RHS:        1
        NUMBER OF FLOPS:      7.018e+04
        SOLVER ELAPSED TIME:  1ms

               CONVERGENCE CHECKS FOR EQUILIBRIUM ITERATION     1


 AVERAGE FORCE                      2.814E+06   TIME AVG. FORCE       2.181E+06
 LARGEST SCALED RESIDUAL FORCE      5.215E-08   AT NODE         79   DOF  2
  CORRESPONDING RESIDUAL FORCE      5.215E-08
 LARGEST INCREMENT OF DISP.         8.000E-04   AT NODE          4   DOF  2
 LARGEST CORRECTION TO DISP.        9.741E-20   AT NODE         54   DOF  2
          THE FORCE     EQUILIBRIUM RESPONSE WAS LINEAR IN THIS INCREMENT

 ITERATION SUMMARY FOR THE INCREMENT:   1 TOTAL ITERATIONS, OF WHICH
   0 ARE SEVERE DISCONTINUITY ITERATIONS AND  1 ARE EQUILIBRIUM ITERATIONS.

 TIME INCREMENT COMPLETED  1.000E-04,  FRACTION OF STEP COMPLETED  0.380    
 STEP TIME COMPLETED       3.800E-03,  TOTAL TIME COMPLETED        3.800E-03


  INCREMENT    50 STARTS. ATTEMPT NUMBER  1, TIME INCREMENT  1.000E-04
 
	SYMMETRIC NEW DIRECT SPARSE SOLVER RUNNING ON
 	1 HOST x 1 MPI RANK PER HOST x 2 THREADS PER RANK
        NUMBER OF EQUATIONS:  228
        NUMBER OF RHS:        1
        NUMBER OF FLOPS:      7.018e+04
        SOLVER ELAPSED TIME:  1ms

               CONVERGENCE CHECKS FOR EQUILIBRIUM ITERATION     1


 AVERAGE FORCE                      2.814E+06   TIME AVG. FORCE       2.193E+06
 LARGEST SCALED RESIDUAL FORCE      6.706E-08   AT NODE         54   DOF  2
  CORRESPONDING RESIDUAL FORCE      6.706E-08
 LARGEST INCREMENT OF DISP.         8.000E-04   AT NODE          4   DOF  2
 LARGEST CORRECTION TO DISP.       -9.427E-20   AT NODE         63   DOF  2
          THE FORCE     EQUILIBRIUM RESPONSE WAS LINEAR IN THIS INCREMENT

 ITERATION SUMMARY FOR THE INCREMENT:   1 TOTAL ITERATIONS, OF WHICH
   0 ARE SEVERE DISCONTINUITY ITERATIONS AND  1 ARE EQUILIBRIUM ITERATIONS.

 TIME INCREMENT COMPLETED  1.000E-04,  FRACTION OF STEP COMPLETED  0.390    
 STEP TIME COMPLETED       3.900E-03,  TOTAL TIME COMPLETED        3.900E-03


  INCREMENT    51 STARTS. ATTEMPT NUMBER  1, TIME INCREMENT  1.000E-04
 
	SYMMETRIC NEW DIRECT SPARSE SOLVER RUNNING ON
 	1 HOST x 1 MPI RANK PER HOST x 2 THREADS PER RANK
        NUMBER OF EQUATIONS:  228
        NUMBER OF RHS:        1
        NUMBER OF FLOPS:      7.018e+04
        SOLVER ELAPSED TIME:  1ms

               CONVERGENCE CHECKS FOR EQUILIBRIUM ITERATION     1


 AVERAGE FORCE                      2.814E+06   TIME AVG. FORCE       2.206E+06
 LARGEST SCALED RESIDUAL FORCE     -8.196E-08   AT NODE        112   DOF  2
  CORRESPONDING RESIDUAL FORCE     -8.196E-08
 LARGEST INCREMENT OF DISP.         8.000E-04   AT NODE          4   DOF  2
 LARGEST CORRECTION TO DISP.        1.292E-19   AT NODE         54   DOF  2
          THE FORCE     EQUILIBRIUM RESPONSE WAS LINEAR IN THIS INCREMENT

 ITERATION SUMMARY FOR THE INCREMENT:   1 TOTAL ITERATIONS, OF WHICH
   0 ARE SEVERE DISCONTINUITY ITERATIONS AND  1 ARE EQUILIBRIUM ITERATIONS.

 TIME INCREMENT COMPLETED  1.000E-04,  FRACTION OF STEP COMPLETED  0.400    
 STEP TIME COMPLETED       4.000E-03,  TOTAL TIME COMPLETED        4.000E-03


  INCREMENT    52 STARTS. ATTEMPT NUMBER  1, TIME INCREMENT  1.000E-04
 
	SYMMETRIC NEW DIRECT SPARSE SOLVER RUNNING ON
 	1 HOST x 1 MPI RANK PER HOST x 2 THREADS PER RANK
        NUMBER OF EQUATIONS:  228
        NUMBER OF RHS:        1
        NUMBER OF FLOPS:      7.018e+04
        SOLVER ELAPSED TIME:  1ms

               CONVERGENCE CHECKS FOR EQUILIBRIUM ITERATION     1


 AVERAGE FORCE                      2.814E+06   TIME AVG. FORCE       2.217E+06
 LARGEST SCALED RESIDUAL FORCE      4.750E-08   AT NODE         61   DOF  2
  CORRESPONDING RESIDUAL FORCE      4.750E-08
 LARGEST INCREMENT OF DISP.         8.000E-04   AT NODE          4   DOF  2
 LARGEST CORRECTION TO DISP.        3.469E-18   AT NODE          4   DOF  2
          THE FORCE     EQUILIBRIUM RESPONSE WAS LINEAR IN THIS INCREMENT

 ITERATION SUMMARY FOR THE INCREMENT:   1 TOTAL ITERATIONS, OF WHICH
   0 ARE SEVERE DISCONTINUITY ITERATIONS AND  1 ARE EQUILIBRIUM ITERATIONS.

 TIME INCREMENT COMPLETED  1.000E-04,  FRACTION OF STEP COMPLETED  0.410    
 STEP TIME COMPLETED       4.100E-03,  TOTAL TIME COMPLETED        4.100E-03


  INCREMENT    53 STARTS. ATTEMPT NUMBER  1, TIME INCREMENT  1.000E-04
 
	SYMMETRIC NEW DIRECT SPARSE SOLVER RUNNING ON
 	1 HOST x 1 MPI RANK PER HOST x 2 THREADS PER RANK
        NUMBER OF EQUATIONS:  228
        NUMBER OF RHS:        1
        NUMBER OF FLOPS:      7.018e+04
        SOLVER ELAPSED TIME:  1ms

               CONVERGENCE CHECKS FOR EQUILIBRIUM ITERATION     1


 AVERAGE FORCE                      2.814E+06   TIME AVG. FORCE       2.229E+06
 LARGEST SCALED RESIDUAL FORCE     -3.586E-08   AT NODE         90   DOF  2
  CORRESPONDING RESIDUAL FORCE     -3.586E-08
 LARGEST INCREMENT OF DISP.         8.000E-04   AT NODE          4   DOF  2
 LARGEST CORRECTION TO DISP.       -1.249E-19   AT NODE         38   DOF  1
          THE FORCE     EQUILIBRIUM RESPONSE WAS LINEAR IN THIS INCREMENT

 ITERATION SUMMARY FOR THE INCREMENT:   1 TOTAL ITERATIONS, OF WHICH
   0 ARE SEVERE DISCONTINUITY ITERATIONS AND  1 ARE EQUILIBRIUM ITERATIONS.

 TIME INCREMENT COMPLETED  1.000E-04,  FRACTION OF STEP COMPLETED  0.420    
 STEP TIME COMPLETED       4.200E-03,  TOTAL TIME COMPLETED        4.200E-03


  INCREMENT    54 STARTS. ATTEMPT NUMBER  1, TIME INCREMENT  1.000E-04
 
	SYMMETRIC NEW DIRECT SPARSE SOLVER RUNNING ON
 	1 HOST x 1 MPI RANK PER HOST x 2 THREADS PER RANK
        NUMBER OF EQUATIONS:  228
        NUMBER OF RHS:        1
        NUMBER OF FLOPS:      7.018e+04
        SOLVER ELAPSED TIME:  1ms

               CONVERGENCE CHECKS FOR EQUILIBRIUM ITERATION     1


 AVERAGE FORCE                      2.814E+06   TIME AVG. FORCE       2.239E+06
 LARGEST SCALED RESIDUAL FORCE     -4.284E-08   AT NODE         76   DOF  2
  CORRESPONDING RESIDUAL FORCE     -4.284E-08
 LARGEST INCREMENT OF DISP.         8.000E-04   AT NODE          4   DOF  2
 LARGEST CORRECTION TO DISP.       -1.302E-19   AT NODE          6   DOF  2
          THE FORCE     EQUILIBRIUM RESPONSE WAS LINEAR IN THIS INCREMENT

 ITERATION SUMMARY FOR THE INCREMENT:   1 TOTAL ITERATIONS, OF WHICH
   0 ARE SEVERE DISCONTINUITY ITERATIONS AND  1 ARE EQUILIBRIUM ITERATIONS.

 TIME INCREMENT COMPLETED  1.000E-04,  FRACTION OF STEP COMPLETED  0.430    
 STEP TIME COMPLETED       4.300E-03,  TOTAL TIME COMPLETED        4.300E-03


  INCREMENT    55 STARTS. ATTEMPT NUMBER  1, TIME INCREMENT  1.000E-04
 
	SYMMETRIC NEW DIRECT SPARSE SOLVER RUNNING ON
 	1 HOST x 1 MPI RANK PER HOST x 2 THREADS PER RANK
        NUMBER OF EQUATIONS:  228
        NUMBER OF RHS:        1
        NUMBER OF FLOPS:      7.018e+04
        SOLVER ELAPSED TIME:  1ms

               CONVERGENCE CHECKS FOR EQUILIBRIUM ITERATION     1


 AVERAGE FORCE                      2.814E+06   TIME AVG. FORCE       2.250E+06
 LARGEST SCALED RESIDUAL FORCE      4.657E-08   AT NODE         74   DOF  2
  CORRESPONDING RESIDUAL FORCE      4.657E-08
 LARGEST INCREMENT OF DISP.         8.000E-04   AT NODE          4   DOF  2
 LARGEST CORRECTION TO DISP.       -8.152E-20   AT NODE         76   DOF  2
          THE FORCE     EQUILIBRIUM RESPONSE WAS LINEAR IN THIS INCREMENT

 ITERATION SUMMARY FOR THE INCREMENT:   1 TOTAL ITERATIONS, OF WHICH
   0 ARE SEVERE DISCONTINUITY ITERATIONS AND  1 ARE EQUILIBRIUM ITERATIONS.

 TIME INCREMENT COMPLETED  1.000E-04,  FRACTION OF STEP COMPLETED  0.440    
 STEP TIME COMPLETED       4.400E-03,  TOTAL TIME COMPLETED        4.400E-03


  INCREMENT    56 STARTS. ATTEMPT NUMBER  1, TIME INCREMENT  1.000E-04
 
	SYMMETRIC NEW DIRECT SPARSE SOLVER RUNNING ON
 	1 HOST x 1 MPI RANK PER HOST x 2 THREADS PER RANK
        NUMBER OF EQUATIONS:  228
        NUMBER OF RHS:        1
        NUMBER OF FLOPS:      7.018e+04
        SOLVER ELAPSED TIME:  1ms

               CONVERGENCE CHECKS FOR EQUILIBRIUM ITERATION     1


 AVERAGE FORCE                      2.814E+06   TIME AVG. FORCE       2.260E+06
 LARGEST SCALED RESIDUAL FORCE     -3.912E-08   AT NODE         76   DOF  2
  CORRESPONDING RESIDUAL FORCE     -3.912E-08
 LARGEST INCREMENT OF DISP.         8.000E-04   AT NODE          4   DOF  2
 LARGEST CORRECTION TO DISP.        1.125E-19   AT NODE         74   DOF  2
          THE FORCE     EQUILIBRIUM RESPONSE WAS LINEAR IN THIS INCREMENT

 ITERATION SUMMARY FOR THE INCREMENT:   1 TOTAL ITERATIONS, OF WHICH
   0 ARE SEVERE DISCONTINUITY ITERATIONS AND  1 ARE EQUILIBRIUM ITERATIONS.

 TIME INCREMENT COMPLETED  1.000E-04,  FRACTION OF STEP COMPLETED  0.450    
 STEP TIME COMPLETED       4.500E-03,  TOTAL TIME COMPLETED        4.500E-03


  INCREMENT    57 STARTS. ATTEMPT NUMBER  1, TIME INCREMENT  1.000E-04
 
	SYMMETRIC NEW DIRECT SPARSE SOLVER RUNNING ON
 	1 HOST x 1 MPI RANK PER HOST x 2 THREADS PER RANK
        NUMBER OF EQUATIONS:  228
        NUMBER OF RHS:        1
        NUMBER OF FLOPS:      7.018e+04
        SOLVER ELAPSED TIME:  1ms

               CONVERGENCE CHECKS FOR EQUILIBRIUM ITERATION     1


 AVERAGE FORCE                      2.814E+06   TIME AVG. FORCE       2.270E+06
 LARGEST SCALED RESIDUAL FORCE     -4.750E-08   AT NODE         76   DOF  2
  CORRESPONDING RESIDUAL FORCE     -4.750E-08
 LARGEST INCREMENT OF DISP.         8.000E-04   AT NODE          4   DOF  2
 LARGEST CORRECTION TO DISP.        6.149E-20   AT NODE         62   DOF  2
          THE FORCE     EQUILIBRIUM RESPONSE WAS LINEAR IN THIS INCREMENT

 ITERATION SUMMARY FOR THE INCREMENT:   1 TOTAL ITERATIONS, OF WHICH
   0 ARE SEVERE DISCONTINUITY ITERATIONS AND  1 ARE EQUILIBRIUM ITERATIONS.

 TIME INCREMENT COMPLETED  1.000E-04,  FRACTION OF STEP COMPLETED  0.460    
 STEP TIME COMPLETED       4.600E-03,  TOTAL TIME COMPLETED        4.600E-03


  INCREMENT    58 STARTS. ATTEMPT NUMBER  1, TIME INCREMENT  1.000E-04
 
	SYMMETRIC NEW DIRECT SPARSE SOLVER RUNNING ON
 	1 HOST x 1 MPI RANK PER HOST x 2 THREADS PER RANK
        NUMBER OF EQUATIONS:  228
        NUMBER OF RHS:        1
        NUMBER OF FLOPS:      7.018e+04
        SOLVER ELAPSED TIME:  1ms

               CONVERGENCE CHECKS FOR EQUILIBRIUM ITERATION     1


 AVERAGE FORCE                      2.814E+06   TIME AVG. FORCE       2.279E+06
 LARGEST SCALED RESIDUAL FORCE      3.260E-08   AT NODE         76   DOF  2
  CORRESPONDING RESIDUAL FORCE      3.260E-08
 LARGEST INCREMENT OF DISP.         8.000E-04   AT NODE          4   DOF  2
 LARGEST CORRECTION TO DISP.       -6.638E-20   AT NODE         76   DOF  2
          THE FORCE     EQUILIBRIUM RESPONSE WAS LINEAR IN THIS INCREMENT

 ITERATION SUMMARY FOR THE INCREMENT:   1 TOTAL ITERATIONS, OF WHICH
   0 ARE SEVERE DISCONTINUITY ITERATIONS AND  1 ARE EQUILIBRIUM ITERATIONS.

 TIME INCREMENT COMPLETED  1.000E-04,  FRACTION OF STEP COMPLETED  0.470    
 STEP TIME COMPLETED       4.700E-03,  TOTAL TIME COMPLETED        4.700E-03


  INCREMENT    59 STARTS. ATTEMPT NUMBER  1, TIME INCREMENT  1.000E-04
 
	SYMMETRIC NEW DIRECT SPARSE SOLVER RUNNING ON
 	1 HOST x 1 MPI RANK PER HOST x 2 THREADS PER RANK
        NUMBER OF EQUATIONS:  228
        NUMBER OF RHS:        1
        NUMBER OF FLOPS:      7.018e+04
        SOLVER ELAPSED TIME:  1ms

               CONVERGENCE CHECKS FOR EQUILIBRIUM ITERATION     1


 AVERAGE FORCE                      2.814E+06   TIME AVG. FORCE       2.288E+06
 LARGEST SCALED RESIDUAL FORCE     -3.912E-08   AT NODE         76   DOF  2
  CORRESPONDING RESIDUAL FORCE     -3.912E-08
 LARGEST INCREMENT OF DISP.         8.000E-04   AT NODE          4   DOF  2
 LARGEST CORRECTION TO DISP.       -8.405E-20   AT NODE         62   DOF  2
          THE FORCE     EQUILIBRIUM RESPONSE WAS LINEAR IN THIS INCREMENT

 ITERATION SUMMARY FOR THE INCREMENT:   1 TOTAL ITERATIONS, OF WHICH
   0 ARE SEVERE DISCONTINUITY ITERATIONS AND  1 ARE EQUILIBRIUM ITERATIONS.

 TIME INCREMENT COMPLETED  1.000E-04,  FRACTION OF STEP COMPLETED  0.480    
 STEP TIME COMPLETED       4.800E-03,  TOTAL TIME COMPLETED        4.800E-03


  INCREMENT    60 STARTS. ATTEMPT NUMBER  1, TIME INCREMENT  1.000E-04
 
	SYMMETRIC NEW DIRECT SPARSE SOLVER RUNNING ON
 	1 HOST x 1 MPI RANK PER HOST x 2 THREADS PER RANK
        NUMBER OF EQUATIONS:  228
        NUMBER OF RHS:        1
        NUMBER OF FLOPS:      7.018e+04
        SOLVER ELAPSED TIME:  1ms

               CONVERGENCE CHECKS FOR EQUILIBRIUM ITERATION     1


 AVERAGE FORCE                      2.814E+06   TIME AVG. FORCE       2.297E+06
 LARGEST SCALED RESIDUAL FORCE     -3.725E-08   AT NODE         76   DOF  2
  CORRESPONDING RESIDUAL FORCE     -3.725E-08
 LARGEST INCREMENT OF DISP.         8.000E-04   AT NODE          4   DOF  2
 LARGEST CORRECTION TO DISP.        7.208E-20   AT NODE        111   DOF  2
          THE FORCE     EQUILIBRIUM RESPONSE WAS LINEAR IN THIS INCREMENT

 ITERATION SUMMARY FOR THE INCREMENT:   1 TOTAL ITERATIONS, OF WHICH
   0 ARE SEVERE DISCONTINUITY ITERATIONS AND  1 ARE EQUILIBRIUM ITERATIONS.

 TIME INCREMENT COMPLETED  1.000E-04,  FRACTION OF STEP COMPLETED  0.490    
 STEP TIME COMPLETED       4.900E-03,  TOTAL TIME COMPLETED        4.900E-03


  INCREMENT    61 STARTS. ATTEMPT NUMBER  1, TIME INCREMENT  1.000E-04
 
	SYMMETRIC NEW DIRECT SPARSE SOLVER RUNNING ON
 	1 HOST x 1 MPI RANK PER HOST x 2 THREADS PER RANK
        NUMBER OF EQUATIONS:  228
        NUMBER OF RHS:        1
        NUMBER OF FLOPS:      7.018e+04
        SOLVER ELAPSED TIME:  1ms

               CONVERGENCE CHECKS FOR EQUILIBRIUM ITERATION     1


 AVERAGE FORCE                      2.814E+06   TIME AVG. FORCE       2.305E+06
 LARGEST SCALED RESIDUAL FORCE      5.495E-08   AT NODE         74   DOF  2
  CORRESPONDING RESIDUAL FORCE      5.495E-08
 LARGEST INCREMENT OF DISP.         8.000E-04   AT NODE          4   DOF  2
 LARGEST CORRECTION TO DISP.       -8.532E-20   AT NODE         24   DOF  1
          THE FORCE     EQUILIBRIUM RESPONSE WAS LINEAR IN THIS INCREMENT

 ITERATION SUMMARY FOR THE INCREMENT:   1 TOTAL ITERATIONS, OF WHICH
   0 ARE SEVERE DISCONTINUITY ITERATIONS AND  1 ARE EQUILIBRIUM ITERATIONS.

 TIME INCREMENT COMPLETED  1.000E-04,  FRACTION OF STEP COMPLETED  0.500    
 STEP TIME COMPLETED       5.000E-03,  TOTAL TIME COMPLETED        5.000E-03


  INCREMENT    62 STARTS. ATTEMPT NUMBER  1, TIME INCREMENT  1.000E-04
 
	SYMMETRIC NEW DIRECT SPARSE SOLVER RUNNING ON
 	1 HOST x 1 MPI RANK PER HOST x 2 THREADS PER RANK
        NUMBER OF EQUATIONS:  228
        NUMBER OF RHS:        1
        NUMBER OF FLOPS:      7.018e+04
        SOLVER ELAPSED TIME:  1ms

               CONVERGENCE CHECKS FOR EQUILIBRIUM ITERATION     1


 AVERAGE FORCE                      2.814E+06   TIME AVG. FORCE       2.313E+06
 LARGEST SCALED RESIDUAL FORCE     -4.563E-08   AT NODE         63   DOF  2
  CORRESPONDING RESIDUAL FORCE     -4.563E-08
 LARGEST INCREMENT OF DISP.         8.000E-04   AT NODE          4   DOF  2
 LARGEST CORRECTION TO DISP.        1.046E-19   AT NODE         74   DOF  2
          THE FORCE     EQUILIBRIUM RESPONSE WAS LINEAR IN THIS INCREMENT

 ITERATION SUMMARY FOR THE INCREMENT:   1 TOTAL ITERATIONS, OF WHICH
   0 ARE SEVERE DISCONTINUITY ITERATIONS AND  1 ARE EQUILIBRIUM ITERATIONS.

 TIME INCREMENT COMPLETED  1.000E-04,  FRACTION OF STEP COMPLETED  0.510    
 STEP TIME COMPLETED       5.100E-03,  TOTAL TIME COMPLETED        5.100E-03


  INCREMENT    63 STARTS. ATTEMPT NUMBER  1, TIME INCREMENT  1.000E-04
 
	SYMMETRIC NEW DIRECT SPARSE SOLVER RUNNING ON
 	1 HOST x 1 MPI RANK PER HOST x 2 THREADS PER RANK
        NUMBER OF EQUATIONS:  228
        NUMBER OF RHS:        1
        NUMBER OF FLOPS:      7.018e+04
        SOLVER ELAPSED TIME:  1ms

               CONVERGENCE CHECKS FOR EQUILIBRIUM ITERATION     1


 AVERAGE FORCE                      2.814E+06   TIME AVG. FORCE       2.321E+06
 LARGEST SCALED RESIDUAL FORCE     -4.563E-08   AT NODE         76   DOF  2
  CORRESPONDING RESIDUAL FORCE     -4.563E-08
 LARGEST INCREMENT OF DISP.         8.000E-04   AT NODE          4   DOF  2
 LARGEST CORRECTION TO DISP.        6.421E-20   AT NODE         76   DOF  2
          THE FORCE     EQUILIBRIUM RESPONSE WAS LINEAR IN THIS INCREMENT

 ITERATION SUMMARY FOR THE INCREMENT:   1 TOTAL ITERATIONS, OF WHICH
   0 ARE SEVERE DISCONTINUITY ITERATIONS AND  1 ARE EQUILIBRIUM ITERATIONS.

 TIME INCREMENT COMPLETED  1.000E-04,  FRACTION OF STEP COMPLETED  0.520    
 STEP TIME COMPLETED       5.200E-03,  TOTAL TIME COMPLETED        5.200E-03


  INCREMENT    64 STARTS. ATTEMPT NUMBER  1, TIME INCREMENT  1.000E-04
 
	SYMMETRIC NEW DIRECT SPARSE SOLVER RUNNING ON
 	1 HOST x 1 MPI RANK PER HOST x 2 THREADS PER RANK
        NUMBER OF EQUATIONS:  228
        NUMBER OF RHS:        1
        NUMBER OF FLOPS:      7.018e+04
        SOLVER ELAPSED TIME:  1ms

               CONVERGENCE CHECKS FOR EQUILIBRIUM ITERATION     1


 AVERAGE FORCE                      2.814E+06   TIME AVG. FORCE       2.329E+06
 LARGEST SCALED RESIDUAL FORCE     -4.470E-08   AT NODE         62   DOF  2
  CORRESPONDING RESIDUAL FORCE     -4.470E-08
 LARGEST INCREMENT OF DISP.         8.000E-04   AT NODE          4   DOF  2
 LARGEST CORRECTION TO DISP.       -5.889E-20   AT NODE         76   DOF  2
          THE FORCE     EQUILIBRIUM RESPONSE WAS LINEAR IN THIS INCREMENT

 ITERATION SUMMARY FOR THE INCREMENT:   1 TOTAL ITERATIONS, OF WHICH
   0 ARE SEVERE DISCONTINUITY ITERATIONS AND  1 ARE EQUILIBRIUM ITERATIONS.

 TIME INCREMENT COMPLETED  1.000E-04,  FRACTION OF STEP COMPLETED  0.530    
 STEP TIME COMPLETED       5.300E-03,  TOTAL TIME COMPLETED        5.300E-03


  INCREMENT    65 STARTS. ATTEMPT NUMBER  1, TIME INCREMENT  1.000E-04
 
	SYMMETRIC NEW DIRECT SPARSE SOLVER RUNNING ON
 	1 HOST x 1 MPI RANK PER HOST x 2 THREADS PER RANK
        NUMBER OF EQUATIONS:  228
        NUMBER OF RHS:        1
        NUMBER OF FLOPS:      7.018e+04
        SOLVER ELAPSED TIME:  1ms

               CONVERGENCE CHECKS FOR EQUILIBRIUM ITERATION     1


 AVERAGE FORCE                      2.814E+06   TIME AVG. FORCE       2.337E+06
 LARGEST SCALED RESIDUAL FORCE     -5.122E-08   AT NODE         63   DOF  2
  CORRESPONDING RESIDUAL FORCE     -5.122E-08
 LARGEST INCREMENT OF DISP.         8.000E-04   AT NODE          4   DOF  2
 LARGEST CORRECTION TO DISP.        7.825E-20   AT NODE         76   DOF  2
          THE FORCE     EQUILIBRIUM RESPONSE WAS LINEAR IN THIS INCREMENT

 ITERATION SUMMARY FOR THE INCREMENT:   1 TOTAL ITERATIONS, OF WHICH
   0 ARE SEVERE DISCONTINUITY ITERATIONS AND  1 ARE EQUILIBRIUM ITERATIONS.

 TIME INCREMENT COMPLETED  1.000E-04,  FRACTION OF STEP COMPLETED  0.540    
 STEP TIME COMPLETED       5.400E-03,  TOTAL TIME COMPLETED        5.400E-03


  INCREMENT    66 STARTS. ATTEMPT NUMBER  1, TIME INCREMENT  1.000E-04
 
	SYMMETRIC NEW DIRECT SPARSE SOLVER RUNNING ON
 	1 HOST x 1 MPI RANK PER HOST x 2 THREADS PER RANK
        NUMBER OF EQUATIONS:  228
        NUMBER OF RHS:        1
        NUMBER OF FLOPS:      7.018e+04
        SOLVER ELAPSED TIME:  1ms

               CONVERGENCE CHECKS FOR EQUILIBRIUM ITERATION     1


 AVERAGE FORCE                      2.814E+06   TIME AVG. FORCE       2.344E+06
 LARGEST SCALED RESIDUAL FORCE      3.632E-08   AT NODE         76   DOF  2
  CORRESPONDING RESIDUAL FORCE      3.632E-08
 LARGEST INCREMENT OF DISP.         8.000E-04   AT NODE          4   DOF  2
 LARGEST CORRECTION TO DISP.       -7.526E-20   AT NODE         63   DOF  2
          THE FORCE     EQUILIBRIUM RESPONSE WAS LINEAR IN THIS INCREMENT

 ITERATION SUMMARY FOR THE INCREMENT:   1 TOTAL ITERATIONS, OF WHICH
   0 ARE SEVERE DISCONTINUITY ITERATIONS AND  1 ARE EQUILIBRIUM ITERATIONS.

 TIME INCREMENT COMPLETED  1.000E-04,  FRACTION OF STEP COMPLETED  0.550    
 STEP TIME COMPLETED       5.500E-03,  TOTAL TIME COMPLETED        5.500E-03


  INCREMENT    67 STARTS. ATTEMPT NUMBER  1, TIME INCREMENT  1.000E-04
 
	SYMMETRIC NEW DIRECT SPARSE SOLVER RUNNING ON
 	1 HOST x 1 MPI RANK PER HOST x 2 THREADS PER RANK
        NUMBER OF EQUATIONS:  228
        NUMBER OF RHS:        1
[...]
        NUMBER OF EQUATIONS:  228
        NUMBER OF RHS:        1
        NUMBER OF FLOPS:      7.018e+04
        SOLVER ELAPSED TIME:  1ms

               CONVERGENCE CHECKS FOR EQUILIBRIUM ITERATION     1


 AVERAGE FORCE                      2.814E+06   TIME AVG. FORCE       2.487E+06
 LARGEST SCALED RESIDUAL FORCE      5.029E-08   AT NODE        100   DOF  2
  CORRESPONDING RESIDUAL FORCE      5.029E-08
 LARGEST INCREMENT OF DISP.         8.000E-04   AT NODE          4   DOF  2
 LARGEST CORRECTION TO DISP.       -7.939E-20   AT NODE        112   DOF  2
          THE FORCE     EQUILIBRIUM RESPONSE WAS LINEAR IN THIS INCREMENT

 ITERATION SUMMARY FOR THE INCREMENT:   1 TOTAL ITERATIONS, OF WHICH
   0 ARE SEVERE DISCONTINUITY ITERATIONS AND  1 ARE EQUILIBRIUM ITERATIONS.

 TIME INCREMENT COMPLETED  1.000E-04,  FRACTION OF STEP COMPLETED  0.840    
 STEP TIME COMPLETED       8.400E-03,  TOTAL TIME COMPLETED        8.400E-03


  INCREMENT    96 STARTS. ATTEMPT NUMBER  1, TIME INCREMENT  1.000E-04
 
	SYMMETRIC NEW DIRECT SPARSE SOLVER RUNNING ON
 	1 HOST x 1 MPI RANK PER HOST x 2 THREADS PER RANK
        NUMBER OF EQUATIONS:  228
        NUMBER OF RHS:        1
        NUMBER OF FLOPS:      7.018e+04
        SOLVER ELAPSED TIME:  1ms

               CONVERGENCE CHECKS FOR EQUILIBRIUM ITERATION     1


 AVERAGE FORCE                      2.814E+06   TIME AVG. FORCE       2.491E+06
 LARGEST SCALED RESIDUAL FORCE     -5.122E-08   AT NODE        107   DOF  2
  CORRESPONDING RESIDUAL FORCE     -5.122E-08
 LARGEST INCREMENT OF DISP.         8.000E-04   AT NODE          4   DOF  2
 LARGEST CORRECTION TO DISP.       -6.430E-20   AT NODE         99   DOF  2
          THE FORCE     EQUILIBRIUM RESPONSE WAS LINEAR IN THIS INCREMENT

 ITERATION SUMMARY FOR THE INCREMENT:   1 TOTAL ITERATIONS, OF WHICH
   0 ARE SEVERE DISCONTINUITY ITERATIONS AND  1 ARE EQUILIBRIUM ITERATIONS.

 TIME INCREMENT COMPLETED  1.000E-04,  FRACTION OF STEP COMPLETED  0.850    
 STEP TIME COMPLETED       8.500E-03,  TOTAL TIME COMPLETED        8.500E-03


  INCREMENT    97 STARTS. ATTEMPT NUMBER  1, TIME INCREMENT  1.000E-04
 
	SYMMETRIC NEW DIRECT SPARSE SOLVER RUNNING ON
 	1 HOST x 1 MPI RANK PER HOST x 2 THREADS PER RANK
        NUMBER OF EQUATIONS:  228
        NUMBER OF RHS:        1
        NUMBER OF FLOPS:      7.018e+04
        SOLVER ELAPSED TIME:  1ms

               CONVERGENCE CHECKS FOR EQUILIBRIUM ITERATION     1


 AVERAGE FORCE                      2.814E+06   TIME AVG. FORCE       2.494E+06
 LARGEST SCALED RESIDUAL FORCE      4.657E-08   AT NODE        102   DOF  2
  CORRESPONDING RESIDUAL FORCE      4.657E-08
 LARGEST INCREMENT OF DISP.         8.000E-04   AT NODE          4   DOF  2
 LARGEST CORRECTION TO DISP.        9.341E-20   AT NODE         99   DOF  2
          THE FORCE     EQUILIBRIUM RESPONSE WAS LINEAR IN THIS INCREMENT

 ITERATION SUMMARY FOR THE INCREMENT:   1 TOTAL ITERATIONS, OF WHICH
   0 ARE SEVERE DISCONTINUITY ITERATIONS AND  1 ARE EQUILIBRIUM ITERATIONS.

 TIME INCREMENT COMPLETED  1.000E-04,  FRACTION OF STEP COMPLETED  0.860    
 STEP TIME COMPLETED       8.600E-03,  TOTAL TIME COMPLETED        8.600E-03


  INCREMENT    98 STARTS. ATTEMPT NUMBER  1, TIME INCREMENT  1.000E-04
 
	SYMMETRIC NEW DIRECT SPARSE SOLVER RUNNING ON
 	1 HOST x 1 MPI RANK PER HOST x 2 THREADS PER RANK
        NUMBER OF EQUATIONS:  228
        NUMBER OF RHS:        1
        NUMBER OF FLOPS:      7.018e+04
        SOLVER ELAPSED TIME:  1ms

               CONVERGENCE CHECKS FOR EQUILIBRIUM ITERATION     1


 AVERAGE FORCE                      2.814E+06   TIME AVG. FORCE       2.497E+06
 LARGEST SCALED RESIDUAL FORCE     -5.402E-08   AT NODE        112   DOF  2
  CORRESPONDING RESIDUAL FORCE     -5.402E-08
 LARGEST INCREMENT OF DISP.         8.000E-04   AT NODE          4   DOF  2
 LARGEST CORRECTION TO DISP.        8.717E-20   AT NODE         39   DOF  1
          THE FORCE     EQUILIBRIUM RESPONSE WAS LINEAR IN THIS INCREMENT

 ITERATION SUMMARY FOR THE INCREMENT:   1 TOTAL ITERATIONS, OF WHICH
   0 ARE SEVERE DISCONTINUITY ITERATIONS AND  1 ARE EQUILIBRIUM ITERATIONS.

 TIME INCREMENT COMPLETED  1.000E-04,  FRACTION OF STEP COMPLETED  0.870    
 STEP TIME COMPLETED       8.700E-03,  TOTAL TIME COMPLETED        8.700E-03


  INCREMENT    99 STARTS. ATTEMPT NUMBER  1, TIME INCREMENT  1.000E-04
 
	SYMMETRIC NEW DIRECT SPARSE SOLVER RUNNING ON
 	1 HOST x 1 MPI RANK PER HOST x 2 THREADS PER RANK
        NUMBER OF EQUATIONS:  228
        NUMBER OF RHS:        1
        NUMBER OF FLOPS:      7.018e+04
        SOLVER ELAPSED TIME:  1ms

               CONVERGENCE CHECKS FOR EQUILIBRIUM ITERATION     1


 AVERAGE FORCE                      2.814E+06   TIME AVG. FORCE       2.500E+06
 LARGEST SCALED RESIDUAL FORCE      5.029E-08   AT NODE        102   DOF  2
  CORRESPONDING RESIDUAL FORCE      5.029E-08
 LARGEST INCREMENT OF DISP.         8.000E-04   AT NODE          4   DOF  2
 LARGEST CORRECTION TO DISP.        9.081E-20   AT NODE         99   DOF  2
          THE FORCE     EQUILIBRIUM RESPONSE WAS LINEAR IN THIS INCREMENT

 ITERATION SUMMARY FOR THE INCREMENT:   1 TOTAL ITERATIONS, OF WHICH
   0 ARE SEVERE DISCONTINUITY ITERATIONS AND  1 ARE EQUILIBRIUM ITERATIONS.

 TIME INCREMENT COMPLETED  1.000E-04,  FRACTION OF STEP COMPLETED  0.880    
 STEP TIME COMPLETED       8.800E-03,  TOTAL TIME COMPLETED        8.800E-03


  INCREMENT   100 STARTS. ATTEMPT NUMBER  1, TIME INCREMENT  1.000E-04
 
	SYMMETRIC NEW DIRECT SPARSE SOLVER RUNNING ON
 	1 HOST x 1 MPI RANK PER HOST x 2 THREADS PER RANK
        NUMBER OF EQUATIONS:  228
        NUMBER OF RHS:        1
        NUMBER OF FLOPS:      7.018e+04
        SOLVER ELAPSED TIME:  1ms

               CONVERGENCE CHECKS FOR EQUILIBRIUM ITERATION     1


 AVERAGE FORCE                      2.814E+06   TIME AVG. FORCE       2.504E+06
 LARGEST SCALED RESIDUAL FORCE     -4.377E-08   AT NODE         79   DOF  2
  CORRESPONDING RESIDUAL FORCE     -4.377E-08
 LARGEST INCREMENT OF DISP.         8.000E-04   AT NODE          4   DOF  2
 LARGEST CORRECTION TO DISP.       -6.331E-20   AT NODE         83   DOF  2
          THE FORCE     EQUILIBRIUM RESPONSE WAS LINEAR IN THIS INCREMENT

 ITERATION SUMMARY FOR THE INCREMENT:   1 TOTAL ITERATIONS, OF WHICH
   0 ARE SEVERE DISCONTINUITY ITERATIONS AND  1 ARE EQUILIBRIUM ITERATIONS.

 TIME INCREMENT COMPLETED  1.000E-04,  FRACTION OF STEP COMPLETED  0.890    
 STEP TIME COMPLETED       8.900E-03,  TOTAL TIME COMPLETED        8.900E-03


  INCREMENT   101 STARTS. ATTEMPT NUMBER  1, TIME INCREMENT  1.000E-04
 
	SYMMETRIC NEW DIRECT SPARSE SOLVER RUNNING ON
 	1 HOST x 1 MPI RANK PER HOST x 2 THREADS PER RANK
        NUMBER OF EQUATIONS:  228
        NUMBER OF RHS:        1
        NUMBER OF FLOPS:      7.018e+04
        SOLVER ELAPSED TIME:  1ms

               CONVERGENCE CHECKS FOR EQUILIBRIUM ITERATION     1


 AVERAGE FORCE                      2.814E+06   TIME AVG. FORCE       2.507E+06
 LARGEST SCALED RESIDUAL FORCE     -5.309E-08   AT NODE         66   DOF  2
  CORRESPONDING RESIDUAL FORCE     -5.309E-08
 LARGEST INCREMENT OF DISP.         8.000E-04   AT NODE          4   DOF  2
 LARGEST CORRECTION TO DISP.        1.156E-19   AT NODE         99   DOF  2
          THE FORCE     EQUILIBRIUM RESPONSE WAS LINEAR IN THIS INCREMENT

 ITERATION SUMMARY FOR THE INCREMENT:   1 TOTAL ITERATIONS, OF WHICH
   0 ARE SEVERE DISCONTINUITY ITERATIONS AND  1 ARE EQUILIBRIUM ITERATIONS.

 TIME INCREMENT COMPLETED  1.000E-04,  FRACTION OF STEP COMPLETED  0.900    
 STEP TIME COMPLETED       9.000E-03,  TOTAL TIME COMPLETED        9.000E-03


  INCREMENT   102 STARTS. ATTEMPT NUMBER  1, TIME INCREMENT  1.000E-04
 
	SYMMETRIC NEW DIRECT SPARSE SOLVER RUNNING ON
 	1 HOST x 1 MPI RANK PER HOST x 2 THREADS PER RANK
        NUMBER OF EQUATIONS:  228
        NUMBER OF RHS:        1
        NUMBER OF FLOPS:      7.018e+04
        SOLVER ELAPSED TIME:  1ms

               CONVERGENCE CHECKS FOR EQUILIBRIUM ITERATION     1


 AVERAGE FORCE                      2.814E+06   TIME AVG. FORCE       2.510E+06
 LARGEST SCALED RESIDUAL FORCE      4.005E-08   AT NODE        109   DOF  2
  CORRESPONDING RESIDUAL FORCE      4.005E-08
 LARGEST INCREMENT OF DISP.         8.000E-04   AT NODE          4   DOF  2
 LARGEST CORRECTION TO DISP.       -8.362E-20   AT NODE        109   DOF  2
          THE FORCE     EQUILIBRIUM RESPONSE WAS LINEAR IN THIS INCREMENT

 ITERATION SUMMARY FOR THE INCREMENT:   1 TOTAL ITERATIONS, OF WHICH
   0 ARE SEVERE DISCONTINUITY ITERATIONS AND  1 ARE EQUILIBRIUM ITERATIONS.

 TIME INCREMENT COMPLETED  1.000E-04,  FRACTION OF STEP COMPLETED  0.910    
 STEP TIME COMPLETED       9.100E-03,  TOTAL TIME COMPLETED        9.100E-03


  INCREMENT   103 STARTS. ATTEMPT NUMBER  1, TIME INCREMENT  1.000E-04
 
	SYMMETRIC NEW DIRECT SPARSE SOLVER RUNNING ON
 	1 HOST x 1 MPI RANK PER HOST x 2 THREADS PER RANK
        NUMBER OF EQUATIONS:  228
        NUMBER OF RHS:        1
        NUMBER OF FLOPS:      7.018e+04
        SOLVER ELAPSED TIME:  1ms

               CONVERGENCE CHECKS FOR EQUILIBRIUM ITERATION     1


 AVERAGE FORCE                      2.814E+06   TIME AVG. FORCE       2.513E+06
 LARGEST SCALED RESIDUAL FORCE     -5.681E-08   AT NODE        107   DOF  2
  CORRESPONDING RESIDUAL FORCE     -5.681E-08
 LARGEST INCREMENT OF DISP.         8.000E-04   AT NODE          4   DOF  2
 LARGEST CORRECTION TO DISP.       -8.966E-20   AT NODE        102   DOF  2
          THE FORCE     EQUILIBRIUM RESPONSE WAS LINEAR IN THIS INCREMENT

 ITERATION SUMMARY FOR THE INCREMENT:   1 TOTAL ITERATIONS, OF WHICH
   0 ARE SEVERE DISCONTINUITY ITERATIONS AND  1 ARE EQUILIBRIUM ITERATIONS.

 TIME INCREMENT COMPLETED  1.000E-04,  FRACTION OF STEP COMPLETED  0.920    
 STEP TIME COMPLETED       9.200E-03,  TOTAL TIME COMPLETED        9.200E-03


  INCREMENT   104 STARTS. ATTEMPT NUMBER  1, TIME INCREMENT  1.000E-04
 
	SYMMETRIC NEW DIRECT SPARSE SOLVER RUNNING ON
 	1 HOST x 1 MPI RANK PER HOST x 2 THREADS PER RANK
        NUMBER OF EQUATIONS:  228
        NUMBER OF RHS:        1
        NUMBER OF FLOPS:      7.018e+04
        SOLVER ELAPSED TIME:  1ms

               CONVERGENCE CHECKS FOR EQUILIBRIUM ITERATION     1


 AVERAGE FORCE                      2.814E+06   TIME AVG. FORCE       2.515E+06
 LARGEST SCALED RESIDUAL FORCE      5.402E-08   AT NODE        100   DOF  2
  CORRESPONDING RESIDUAL FORCE      5.402E-08
 LARGEST INCREMENT OF DISP.         8.000E-04   AT NODE          4   DOF  2
 LARGEST CORRECTION TO DISP.       -8.525E-20   AT NODE         38   DOF  2
          THE FORCE     EQUILIBRIUM RESPONSE WAS LINEAR IN THIS INCREMENT

 ITERATION SUMMARY FOR THE INCREMENT:   1 TOTAL ITERATIONS, OF WHICH
   0 ARE SEVERE DISCONTINUITY ITERATIONS AND  1 ARE EQUILIBRIUM ITERATIONS.

 TIME INCREMENT COMPLETED  1.000E-04,  FRACTION OF STEP COMPLETED  0.930    
 STEP TIME COMPLETED       9.300E-03,  TOTAL TIME COMPLETED        9.300E-03


  INCREMENT   105 STARTS. ATTEMPT NUMBER  1, TIME INCREMENT  1.000E-04
 
	SYMMETRIC NEW DIRECT SPARSE SOLVER RUNNING ON
 	1 HOST x 1 MPI RANK PER HOST x 2 THREADS PER RANK
        NUMBER OF EQUATIONS:  228
        NUMBER OF RHS:        1
        NUMBER OF FLOPS:      7.018e+04
        SOLVER ELAPSED TIME:  1ms

               CONVERGENCE CHECKS FOR EQUILIBRIUM ITERATION     1


 AVERAGE FORCE                      2.814E+06   TIME AVG. FORCE       2.518E+06
 LARGEST SCALED RESIDUAL FORCE     -4.284E-08   AT NODE         99   DOF  2
  CORRESPONDING RESIDUAL FORCE     -4.284E-08
 LARGEST INCREMENT OF DISP.         8.000E-04   AT NODE          4   DOF  2
 LARGEST CORRECTION TO DISP.       -9.207E-20   AT NODE         74   DOF  2
          THE FORCE     EQUILIBRIUM RESPONSE WAS LINEAR IN THIS INCREMENT

 ITERATION SUMMARY FOR THE INCREMENT:   1 TOTAL ITERATIONS, OF WHICH
   0 ARE SEVERE DISCONTINUITY ITERATIONS AND  1 ARE EQUILIBRIUM ITERATIONS.

 TIME INCREMENT COMPLETED  1.000E-04,  FRACTION OF STEP COMPLETED  0.940    
 STEP TIME COMPLETED       9.400E-03,  TOTAL TIME COMPLETED        9.400E-03


  INCREMENT   106 STARTS. ATTEMPT NUMBER  1, TIME INCREMENT  1.000E-04
 
	SYMMETRIC NEW DIRECT SPARSE SOLVER RUNNING ON
 	1 HOST x 1 MPI RANK PER HOST x 2 THREADS PER RANK
        NUMBER OF EQUATIONS:  228
        NUMBER OF RHS:        1
        NUMBER OF FLOPS:      7.018e+04
        SOLVER ELAPSED TIME:  1ms

               CONVERGENCE CHECKS FOR EQUILIBRIUM ITERATION     1


 AVERAGE FORCE                      2.814E+06   TIME AVG. FORCE       2.521E+06
 LARGEST SCALED RESIDUAL FORCE      4.098E-08   AT NODE         62   DOF  2
  CORRESPONDING RESIDUAL FORCE      4.098E-08
 LARGEST INCREMENT OF DISP.         8.000E-04   AT NODE          4   DOF  2
 LARGEST CORRECTION TO DISP.        7.710E-20   AT NODE         83   DOF  2
          THE FORCE     EQUILIBRIUM RESPONSE WAS LINEAR IN THIS INCREMENT

 ITERATION SUMMARY FOR THE INCREMENT:   1 TOTAL ITERATIONS, OF WHICH
   0 ARE SEVERE DISCONTINUITY ITERATIONS AND  1 ARE EQUILIBRIUM ITERATIONS.

 TIME INCREMENT COMPLETED  1.000E-04,  FRACTION OF STEP COMPLETED  0.950    
 STEP TIME COMPLETED       9.500E-03,  TOTAL TIME COMPLETED        9.500E-03


  INCREMENT   107 STARTS. ATTEMPT NUMBER  1, TIME INCREMENT  1.000E-04
 
	SYMMETRIC NEW DIRECT SPARSE SOLVER RUNNING ON
 	1 HOST x 1 MPI RANK PER HOST x 2 THREADS PER RANK
        NUMBER OF EQUATIONS:  228
        NUMBER OF RHS:        1
        NUMBER OF FLOPS:      7.018e+04
        SOLVER ELAPSED TIME:  1ms

               CONVERGENCE CHECKS FOR EQUILIBRIUM ITERATION     1


 AVERAGE FORCE                      2.814E+06   TIME AVG. FORCE       2.524E+06
 LARGEST SCALED RESIDUAL FORCE     -4.377E-08   AT NODE         79   DOF  2
  CORRESPONDING RESIDUAL FORCE     -4.377E-08
 LARGEST INCREMENT OF DISP.         8.000E-04   AT NODE          4   DOF  2
 LARGEST CORRECTION TO DISP.       -1.075E-19   AT NODE        109   DOF  2
          THE FORCE     EQUILIBRIUM RESPONSE WAS LINEAR IN THIS INCREMENT

 ITERATION SUMMARY FOR THE INCREMENT:   1 TOTAL ITERATIONS, OF WHICH
   0 ARE SEVERE DISCONTINUITY ITERATIONS AND  1 ARE EQUILIBRIUM ITERATIONS.

 TIME INCREMENT COMPLETED  1.000E-04,  FRACTION OF STEP COMPLETED  0.960    
 STEP TIME COMPLETED       9.600E-03,  TOTAL TIME COMPLETED        9.600E-03


  INCREMENT   108 STARTS. ATTEMPT NUMBER  1, TIME INCREMENT  1.000E-04
 
	SYMMETRIC NEW DIRECT SPARSE SOLVER RUNNING ON
 	1 HOST x 1 MPI RANK PER HOST x 2 THREADS PER RANK
        NUMBER OF EQUATIONS:  228
        NUMBER OF RHS:        1
        NUMBER OF FLOPS:      7.018e+04
        SOLVER ELAPSED TIME:  1ms

               CONVERGENCE CHECKS FOR EQUILIBRIUM ITERATION     1


 AVERAGE FORCE                      2.814E+06   TIME AVG. FORCE       2.527E+06
 LARGEST SCALED RESIDUAL FORCE     -4.563E-08   AT NODE         74   DOF  2
  CORRESPONDING RESIDUAL FORCE     -4.563E-08
 LARGEST INCREMENT OF DISP.         8.000E-04   AT NODE          4   DOF  2
 LARGEST CORRECTION TO DISP.        1.130E-19   AT NODE         99   DOF  2
          THE FORCE     EQUILIBRIUM RESPONSE WAS LINEAR IN THIS INCREMENT

 ITERATION SUMMARY FOR THE INCREMENT:   1 TOTAL ITERATIONS, OF WHICH
   0 ARE SEVERE DISCONTINUITY ITERATIONS AND  1 ARE EQUILIBRIUM ITERATIONS.

 TIME INCREMENT COMPLETED  1.000E-04,  FRACTION OF STEP COMPLETED  0.970    
 STEP TIME COMPLETED       9.700E-03,  TOTAL TIME COMPLETED        9.700E-03


  INCREMENT   109 STARTS. ATTEMPT NUMBER  1, TIME INCREMENT  1.000E-04
 
	SYMMETRIC NEW DIRECT SPARSE SOLVER RUNNING ON
 	1 HOST x 1 MPI RANK PER HOST x 2 THREADS PER RANK
        NUMBER OF EQUATIONS:  228
        NUMBER OF RHS:        1
        NUMBER OF FLOPS:      7.018e+04
        SOLVER ELAPSED TIME:  1ms

               CONVERGENCE CHECKS FOR EQUILIBRIUM ITERATION     1


 AVERAGE FORCE                      2.814E+06   TIME AVG. FORCE       2.529E+06
 LARGEST SCALED RESIDUAL FORCE      5.215E-08   AT NODE        100   DOF  2
  CORRESPONDING RESIDUAL FORCE      5.215E-08
 LARGEST INCREMENT OF DISP.         8.000E-04   AT NODE          4   DOF  2
 LARGEST CORRECTION TO DISP.       -8.114E-20   AT NODE         74   DOF  2
          THE FORCE     EQUILIBRIUM RESPONSE WAS LINEAR IN THIS INCREMENT

 ITERATION SUMMARY FOR THE INCREMENT:   1 TOTAL ITERATIONS, OF WHICH
   0 ARE SEVERE DISCONTINUITY ITERATIONS AND  1 ARE EQUILIBRIUM ITERATIONS.

 TIME INCREMENT COMPLETED  1.000E-04,  FRACTION OF STEP COMPLETED  0.980    
 STEP TIME COMPLETED       9.800E-03,  TOTAL TIME COMPLETED        9.800E-03


  INCREMENT   110 STARTS. ATTEMPT NUMBER  1, TIME INCREMENT  1.000E-04
 
	SYMMETRIC NEW DIRECT SPARSE SOLVER RUNNING ON
 	1 HOST x 1 MPI RANK PER HOST x 2 THREADS PER RANK
        NUMBER OF EQUATIONS:  228
        NUMBER OF RHS:        1
        NUMBER OF FLOPS:      7.018e+04
        SOLVER ELAPSED TIME:  1ms

               CONVERGENCE CHECKS FOR EQUILIBRIUM ITERATION     1


 AVERAGE FORCE                      2.814E+06   TIME AVG. FORCE       2.532E+06
 LARGEST SCALED RESIDUAL FORCE      4.843E-08   AT NODE        102   DOF  2
  CORRESPONDING RESIDUAL FORCE      4.843E-08
 LARGEST INCREMENT OF DISP.         8.000E-04   AT NODE          4   DOF  2
 LARGEST CORRECTION TO DISP.        7.815E-20   AT NODE         60   DOF  2
          THE FORCE     EQUILIBRIUM RESPONSE WAS LINEAR IN THIS INCREMENT

 ITERATION SUMMARY FOR THE INCREMENT:   1 TOTAL ITERATIONS, OF WHICH
   0 ARE SEVERE DISCONTINUITY ITERATIONS AND  1 ARE EQUILIBRIUM ITERATIONS.

 TIME INCREMENT COMPLETED  1.000E-04,  FRACTION OF STEP COMPLETED  0.990    
 STEP TIME COMPLETED       9.900E-03,  TOTAL TIME COMPLETED        9.900E-03


  INCREMENT   111 STARTS. ATTEMPT NUMBER  1, TIME INCREMENT  1.000E-04
 
	SYMMETRIC NEW DIRECT SPARSE SOLVER RUNNING ON
 	1 HOST x 1 MPI RANK PER HOST x 2 THREADS PER RANK
        NUMBER OF EQUATIONS:  228
        NUMBER OF RHS:        1
        NUMBER OF FLOPS:      7.018e+04
        SOLVER ELAPSED TIME:  1ms

               CONVERGENCE CHECKS FOR EQUILIBRIUM ITERATION     1


 AVERAGE FORCE                      2.814E+06   TIME AVG. FORCE       2.534E+06
 LARGEST SCALED RESIDUAL FORCE     -5.215E-08   AT NODE        107   DOF  2
  CORRESPONDING RESIDUAL FORCE     -5.215E-08
 LARGEST INCREMENT OF DISP.         8.000E-04   AT NODE          4   DOF  2
 LARGEST CORRECTION TO DISP.       -1.059E-19   AT NODE         24   DOF  2
          THE FORCE     EQUILIBRIUM RESPONSE WAS LINEAR IN THIS INCREMENT

 ITERATION SUMMARY FOR THE INCREMENT:   1 TOTAL ITERATIONS, OF WHICH
   0 ARE SEVERE DISCONTINUITY ITERATIONS AND  1 ARE EQUILIBRIUM ITERATIONS.

 TIME INCREMENT COMPLETED  1.000E-04,  FRACTION OF STEP COMPLETED   1.00    
 STEP TIME COMPLETED       1.000E-02,  TOTAL TIME COMPLETED        1.000E-02


          THE ANALYSIS HAS BEEN COMPLETED



     ANALYSIS SUMMARY:
     TOTAL OF        111  INCREMENTS
                       0  CUTBACKS IN AUTOMATIC INCREMENTATION
                     111  ITERATIONS INCLUDING CONTACT ITERATIONS IF PRESENT
                     111  PASSES THROUGH THE EQUATION SOLVER OF WHICH 
                     111  INVOLVE MATRIX DECOMPOSITION, INCLUDING
                       0  DECOMPOSITION(S) OF THE MASS MATRIX
                       1  REORDERING OF EQUATIONS TO MINIMIZE WAVEFRONT
                       0  ADDITIONAL RESIDUAL EVALUATIONS FOR LINE SEARCHES
                       0  ADDITIONAL OPERATOR EVALUATIONS FOR LINE SEARCHES
                       2  WARNING MESSAGES DURING USER INPUT PROCESSING
                       0  WARNING MESSAGES DURING ANALYSIS
                       0  ANALYSIS WARNINGS ARE NUMERICAL PROBLEM MESSAGES
                       0  ANALYSIS WARNINGS ARE NEGATIVE EIGENVALUE MESSAGES
                       0  ERROR MESSAGES



     JOB TIME SUMMARY
       USER TIME (SEC)      =      5.5    
       SYSTEM TIME (SEC)    =      4.7    
       TOTAL CPU TIME (SEC) =      10.    
       WALLCLOCK TIME (SEC) =           11
       MEMORY PEAK (GB)     =            0
