 Abaqus/Standard 2023.HF4                  DATE 06-Aug-2024 TIME 20:14:08
 SUMMARY OF JOB INFORMATION:
 STEP  INC ATT SEVERE EQUIL TOTAL  TOTAL      STEP       INC OF       DOF    IF
               DISCON ITERS ITERS  TIME/    TIME/LPF    TIME/LPF    MONITOR RIKS
               ITERS               FREQ
   1     1   1     0     1     1  1.00e-06   1.00e-06   1.000e-06 
   1     2   1     0     1     1  2.00e-06   2.00e-06   1.000e-06 
   1     3   1     0     1     1  3.50e-06   3.50e-06   1.500e-06 
   1     4   1     0     1     1  5.75e-06   5.75e-06   2.250e-06 
   1     5   1     0     1     1  9.12e-06   9.12e-06   3.375e-06 
   1     6   1     0     1     1  1.42e-05   1.42e-05   5.062e-06 
   1     7   1     0     1     1  2.18e-05   2.18e-05   7.594e-06 
   1     8   1     0     1     1  3.32e-05   3.32e-05   1.139e-05 
   1     9   1     0     1     1  5.03e-05   5.03e-05   1.709e-05 
   1    10   1     0     1     1  7.59e-05   7.59e-05   2.563e-05 
   1    11   1     0     1     1  0.000114   0.000114   3.844e-05 
   1    12   1     0     1     1  0.000172   0.000172   5.767e-05 
   1    13   1     0     1     1  0.000258   0.000258   8.650e-05 
   1    14   1     0     1     1  0.000358   0.000358   0.0001000 
   1    15   1     0     1     1  0.000458   0.000458   0.0001000 
   1    16   1     0     1     1  0.000500   0.000500   4.151e-05 
   1    17   1     0     1     1  0.000600   0.000600   0.0001000 
   1    18   1     0     1     1  0.000700   0.000700   0.0001000 
   1    19   1     0     1     1  0.000800   0.000800   0.0001000 
   1    20   1     0     1     1  0.000900   0.000900   0.0001000 
   1    21   1     0     1     1  0.00100    0.00100    0.0001000 
   1    22   1     0     1     1  0.00110    0.00110    0.0001000 
   1    23   1     0     1     1  0.00120    0.00120    0.0001000 
   1    24   1     0     1     1  0.00130    0.00130    0.0001000 
   1    25   1     0     1     1  0.00140    0.00140    0.0001000 
   1    26   1     0     1     1  0.00150    0.00150    0.0001000 
   1    27   1     0     1     1  0.00160    0.00160    0.0001000 
   1    28   1     0     1     1  0.00170    0.00170    0.0001000 
   1    29   1     0     1     1  0.00180    0.00180    0.0001000 
   1    30   1     0     1     1  0.00190    0.00190    0.0001000 
   1    31   1     0     1     1  0.00200    0.00200    0.0001000 
   1    32   1     0     1     1  0.00210    0.00210    0.0001000 
   1    33   1     0     1     1  0.00220    0.00220    0.0001000 
   1    34   1     0     1     1  0.00230    0.00230    0.0001000 
   1    35   1     0     1     1  0.00240    0.00240    0.0001000 
   1    36   1     0     1     1  0.00250    0.00250    0.0001000 
   1    37   1     0     1     1  0.00260    0.00260    0.0001000 
   1    38   1     0     1     1  0.00270    0.00270    0.0001000 
   1    39   1     0     1     1  0.00280    0.00280    0.0001000 
   1    40   1     0     1     1  0.00290    0.00290    0.0001000 
   1    41   1     0     1     1  0.00300    0.00300    0.0001000 
   1    42   1     0     1     1  0.00310    0.00310    0.0001000 
   1    43   1     0     1     1  0.00320    0.00320    0.0001000 
   1    44   1     0     1     1  0.00330    0.00330    0.0001000 
   1    45   1     0     1     1  0.00340    0.00340    0.0001000 
   1    46   1     0     1     1  0.00350    0.00350    0.0001000 
   1    47   1     0     1     1  0.00360    0.00360    0.0001000 
   1    48   1     0     1     1  0.00370    0.00370    0.0001000 
   1    49   1     0     1     1  0.00380    0.00380    0.0001000 
   1    50   1     0     1     1  0.00390    0.00390    0.0001000 
   1    51   1     0     1     1  0.00400    0.00400    0.0001000 
   1    52   1     0     1     1  0.00410    0.00410    0.0001000 
   1    53   1     0     1     1  0.00420    0.00420    0.0001000 
   1    54   1     0     1     1  0.00430    0.00430    0.0001000 
   1    55   1     0     1     1  0.00440    0.00440    0.0001000 
   1    56   1     0     1     1  0.00450    0.00450    0.0001000 
   1    57   1     0     1     1  0.00460    0.00460    0.0001000 
   1    58   1     0     1     1  0.00470    0.00470    0.0001000 
   1    59   1     0     1     1  0.00480    0.00480    0.0001000 
   1    60   1     0     1     1  0.00490    0.00490    0.0001000 
   1    61   1     0     1     1  0.00500    0.00500    0.0001000 
   1    62   1     0     1     1  0.00510    0.00510    0.0001000 
   1    63   1     0     1     1  0.00520    0.00520    0.0001000 
   1    64   1     0     1     1  0.00530    0.00530    0.0001000 
   1    65   1     0     1     1  0.00540    0.00540    0.0001000 
   1    66   1     0     1     1  0.00550    0.00550    0.0001000 
   1    67   1     0     1     1  0.00560    0.00560    0.0001000 
   1    68   1     0     1     1  0.00570    0.00570    0.0001000 
   1    69   1     0     1     1  0.00580    0.00580    0.0001000 
   1    70   1     0     1     1  0.00590    0.00590    0.0001000 
   1    71   1     0     1     1  0.00600    0.00600    0.0001000 
   1    72   1     0     1     1  0.00610    0.00610    0.0001000 
   1    73   1     0     1     1  0.00620    0.00620    0.0001000 
   1    74   1     0     1     1  0.00630    0.00630    0.0001000 
   1    75   1     0     1     1  0.00640    0.00640    0.0001000 
   1    76   1     0     1     1  0.00650    0.00650    0.0001000 
   1    77   1     0     1     1  0.00660    0.00660    0.0001000 
   1    78   1     0     1     1  0.00670    0.00670    0.0001000 
   1    79   1     0     1     1  0.00680    0.00680    0.0001000 
   1    80   1     0     1     1  0.00690    0.00690    0.0001000 
   1    81   1     0     1     1  0.00700    0.00700    0.0001000 
   1    82   1     0     1     1  0.00710    0.00710    0.0001000 
   1    83   1     0     1     1  0.00720    0.00720    0.0001000 
   1    84   1     0     1     1  0.00730    0.00730    0.0001000 
   1    85   1     0     1     1  0.00740    0.00740    0.0001000 
   1    86   1     0     1     1  0.00750    0.00750    0.0001000 
   1    87   1     0     1     1  0.00760    0.00760    0.0001000 
   1    88   1     0     1     1  0.00770    0.00770    0.0001000 
   1    89   1     0     1     1  0.00780    0.00780    0.0001000 
   1    90   1     0     1     1  0.00790    0.00790    0.0001000 
   1    91   1     0     1     1  0.00800    0.00800    0.0001000 
   1    92   1     0     1     1  0.00810    0.00810    0.0001000 
   1    93   1     0     1     1  0.00820    0.00820    0.0001000 
   1    94   1     0     1     1  0.00830    0.00830    0.0001000 
   1    95   1     0     1     1  0.00840    0.00840    0.0001000 
   1    96   1     0     1     1  0.00850    0.00850    0.0001000 
   1    97   1     0     1     1  0.00860    0.00860    0.0001000 
   1    98   1     0     1     1  0.00870    0.00870    0.0001000 
   1    99   1     0     1     1  0.00880    0.00880    0.0001000 
   1   100   1     0     1     1  0.00890    0.00890    0.0001000 
   1   101   1     0     1     1  0.00900    0.00900    0.0001000 
   1   102   1     0     1     1  0.00910    0.00910    0.0001000 
   1   103   1     0     1     1  0.00920    0.00920    0.0001000 
   1   104   1     0     1     1  0.00930    0.00930    0.0001000 
   1   105   1     0     1     1  0.00940    0.00940    0.0001000 
   1   106   1     0     1     1  0.00950    0.00950    0.0001000 
   1   107   1     0     1     1  0.00960    0.00960    0.0001000 
   1   108   1     0     1     1  0.00970    0.00970    0.0001000 
   1   109   1     0     1     1  0.00980    0.00980    0.0001000 
   1   110   1     0     1     1  0.00990    0.00990    0.0001000 
   1   111   1     0     1     1  0.0100     0.0100     0.0001000 
                          
 THE ANALYSIS HAS COMPLETED SUCCESSFULLY
