*Heading
NVH:  Lower control arm: modal analysis
**
*Preprint, echo=NO, model=NO, history=NO, contact=NO
**
** PARTS
**
*Part, name=LCA
*Node
     13,        157.5,  -51.1699982,         77.5
     15,   42.4199982,   98.6299973,   41.2746925
     27,   138.107193,  -26.0730019,   77.2611313
     41,       -192.5,  -51.1699982,         77.5
     46,  -103.379997,  -158.587021,         73.5
   8627,   42.4199982,   105.512291,        41.25
   8628,   42.4199982,   112.394806,        41.25
   8629,   42.4199982,   119.277321,        41.25
   8630,   42.4199982,   126.159836,        41.25
   8631,   42.4199982,   133.042343,        41.25
   8632,   42.4199982,   139.924866,        41.25
   8633,   42.4199982,   146.807373,        41.25
   8634,   42.4199982,   153.689896,        41.25
   8635,   42.4199982,   160.572403,        41.25
   8636,   42.4199982,    167.45491,        41.25
   8637,   42.4199982,   174.337433,        41.25
   8638,   42.4199982,    181.21994,        41.25
   8639,   42.4199982,   188.102463,        41.25
   8640,   42.4199982,    194.98497,        41.25
   8641,   42.4199982,   201.867493,        41.25
** ... 7190 like lines cut
*Element, type=S4R
39356,    41, 12328, 12174,  9619
39357, 12328, 12329, 12175, 12174
39358, 12329, 12330, 12176, 12175
39359, 12330, 12331, 12177, 12176
39360, 12331, 12332, 12178, 12177
39361, 12332, 12333, 12179, 12178
39362, 12333, 12334, 12180, 12179
39363, 12334, 12335, 12181, 12180
39364, 12335, 12336, 12182, 12181
39365, 12336, 12337, 12183, 12182
39366, 12337, 12338, 12184, 12183
39367, 12338, 12351, 12353, 12184
39368,  9619, 12174, 12185,  9620
39369, 12174, 12175, 12186, 12185
39370, 12175, 12176, 12187, 12186
39371, 12176, 12177, 12188, 12187
39372, 12177, 12178, 12189, 12188
39373, 12178, 12179, 12190, 12189
39374, 12179, 12180, 12191, 12190
39375, 12180, 12181, 12192, 12191
** ... 3842 like lines cut
*Element, type=S3R
40204, 13108, 13096, 13101
40781, 13836, 13839, 13842
40783, 12635, 13844, 12636
40786, 13833, 13741, 13844
40793, 13842, 13846, 13743
40812, 13863, 13860, 13855
40830, 13870, 13879, 13745
40840, 13891, 13881, 13738
40861, 13898, 13892, 13821
40881, 13907, 13915, 13922
40882, 13918, 13909, 13822
40889, 13922, 13818, 13819
40892, 13916, 13923, 13930
40902, 13817, 13818, 13932
40923, 13951, 13947, 13814
40924, 13953, 13815, 13816
40939, 13959, 13962, 13957
41755, 14354, 14328, 14265
41770, 14252, 14334, 14299
42333, 14974, 14973, 14958
** ... 126 like lines cut
*Element, type=C3D8
46445, 18959, 18922, 18923, 18978, 19711, 19712, 19713, 19714
46446, 18958, 18959, 18978, 18979, 19715, 19711, 19714, 19716
46447, 18980, 18978, 18923, 18924, 19717, 19714, 19713, 19718
46448, 18966, 18957, 18958, 18979, 19719, 19720, 19715, 19716
46449, 18980, 18965, 18979, 18978, 19717, 19721, 19716, 19714
46450, 18925, 18981, 18980, 18924, 19722, 19723, 19717, 19718
46452, 18957, 18966, 18967, 18956, 19720, 19719, 19724, 19725
46455, 18926, 18927, 18982, 18981, 19726, 19728, 19729, 19723
46456, 18968, 18955, 18956, 18967, 19730, 19731, 19725, 19724
46457, 18980, 18981, 18983, 18964, 19717, 19723, 19732, 19727
46458, 18927, 18928, 18984, 18982, 19728, 19733, 19734, 19729
46459, 18968, 18986, 18954, 18955, 19730, 19735, 19736, 19731
46461, 18981, 18982, 18985, 18983, 19723, 19729, 19738, 19732
46462, 18984, 18928, 18929, 18987, 19734, 19733, 19739, 19740
46463, 18982, 18984, 18989, 18985, 19729, 19734, 19741, 19738
46464, 18988, 18963, 18983, 18985, 19742, 19737, 19732, 19738
46465, 18986, 18990, 18953, 18954, 19735, 19743, 19744, 19736
46466, 18960, 18991, 18986, 18968, 19745, 19746, 19735, 19730
46467, 18962, 18963, 18988, 18993, 19747, 19737, 19742, 19748
46468, 18997, 18987, 18929, 18930, 19749, 19740, 19739, 19750
** ... 1682 like lines cut
*Element, type=C3D6
46451, 18965, 18966, 18979, 19721, 19719, 19716
46453, 18925, 18926, 18981, 19722, 19726, 19723
46454, 18980, 18964, 18965, 19717, 19727, 19721
46460, 18963, 18964, 18983, 19737, 19727, 19732
46474, 18994, 18961, 18962, 19758, 19756, 19747
46495, 19002, 19006, 19008, 19762, 19771, 19775
46496, 18973, 19008, 18972, 19767, 19775, 19782
46509, 19014, 18970, 18971, 19798, 19796, 19793
46544, 19721, 19719, 19716, 19837, 19835, 19832
46546, 19722, 19726, 19723, 19838, 19842, 19839
46547, 19717, 19727, 19721, 19833, 19843, 19837
46553, 19737, 19727, 19732, 19853, 19843, 19848
46567, 19758, 19756, 19747, 19874, 19872, 19863
46588, 19762, 19771, 19775, 19878, 19887, 19891
46589, 19767, 19775, 19782, 19883, 19891, 19898
46602, 19798, 19796, 19793, 19914, 19912, 19909
46637, 19837, 19835, 19832, 19953, 19951, 19948
46639, 19838, 19842, 19839, 19954, 19958, 19955
46640, 19833, 19843, 19837, 19949, 19959, 19953
46646, 19853, 19843, 19848, 19969, 19959, 19964
** ... 40 like lines cut
*Elset, elset=BJ_SOLID
 46445, 46446, 46447, 46448, 46449, 46450, 46451, 46452, 46453, 46454, 46455, 46456, 46457, 46458, 46459, 46460
 46461, 46462, 46463, 46464, 46465, 46466, 46467, 46468, 46469, 46470, 46471, 46472, 46473, 46474, 46475, 46476
 46477, 46478, 46479, 46480, 46481, 46482, 46483, 46484, 46485, 46486, 46487, 46488, 46489, 46490, 46491, 46492
 46493, 46494, 46495, 46496, 46497, 46498, 46499, 46500, 46501, 46502, 46503, 46504, 46505, 46506, 46507, 46508
 46509, 46510, 46511, 46512, 46513, 46514, 46515, 46516, 46517, 46518, 46519, 46520, 46521, 46522, 46523, 46524
 46525, 46526, 46527, 46528, 46529, 46530, 46531, 46532, 46533, 46534, 46535, 46536, 46537, 46538, 46539, 46540
 46541, 46542, 46543, 46544, 46545, 46546, 46547, 46548, 46549, 46550, 46551, 46552, 46553, 46554, 46555, 46556
 46557, 46558, 46559, 46560, 46561, 46562, 46563, 46564, 46565, 46566, 46567, 46568, 46569, 46570, 46571, 46572
 46573, 46574, 46575, 46576, 46577, 46578, 46579, 46580, 46581, 46582, 46583, 46584, 46585, 46586, 46587, 46588
 46589, 46590, 46591, 46592, 46593, 46594, 46595, 46596, 46597, 46598, 46599, 46600, 46601, 46602, 46603, 46604
 46605, 46606, 46607, 46608, 46609, 46610, 46611, 46612, 46613, 46614, 46615, 46616, 46617, 46618, 46619, 46620
 46621, 46622, 46623, 46624, 46625, 46626, 46627, 46628, 46629, 46630, 46631, 46632, 46633, 46634, 46635, 46636
 46637, 46638, 46639, 46640, 46641, 46642, 46643, 46644, 46645, 46646, 46647, 46648, 46649, 46650, 46651, 46652
 46653, 46654, 46655, 46656, 46657, 46658, 46659, 46660, 46661, 46662, 46663, 46664, 46665, 46666, 46667, 46668
 46669, 46670, 46671, 46672, 46673, 46674, 46675, 46676, 46677, 46678, 46679, 46680, 46681, 46682, 46683, 46684
 46685, 46686, 46687, 46688, 46689, 46690, 46691, 46692, 46693, 46694, 46695, 46696, 46697, 46698, 46699, 46700
 46701, 46702, 46703, 46704, 46705, 46706, 46707, 46708, 46709, 46710, 46711, 46712, 46713, 46714, 46715, 46716
 46717, 46718, 46719, 46720, 46721, 46722, 46723, 46724, 46725, 46726, 46727, 46728, 46729, 46730, 46731, 46732
 46733, 46734, 46735, 46736, 46737, 46738, 46739, 46740, 46741, 46742, 46743, 46744, 46745, 46746, 46747, 46748
 46749, 46750, 46751, 46752, 46753, 46754, 46755, 46756, 46757, 46758, 46759, 46760, 46761, 46762, 46763, 46764
** ... 36 like lines cut
*Elset, elset=BOLT
 48249, 48250, 48251, 48252, 48253, 48254, 48255, 48256, 48257, 48258, 48259, 48260, 48261, 48262, 48263, 48264
 48265, 48266, 48267, 48268, 48269, 48270, 48271, 48272, 48273, 48274, 48275, 48276, 48277, 48278, 48279, 48280
 48281, 48420, 48421, 48422, 48423, 48424, 48425, 48426, 48427, 48428, 48429, 48430, 48431, 48432, 48433, 48434
 48435, 48436, 48437, 48438, 48439, 48440, 48441, 48442, 48443, 48444, 48445, 48446, 48447, 48448, 48449, 48450
 48451, 48452, 49310, 49311, 49312, 49313, 49314, 49315, 49316, 49317, 49318, 49319, 49320, 49321, 49322, 49323
 49324, 49325, 49326, 49327, 49328, 49329, 49330, 49331, 49332, 49333, 49334, 49335, 49336, 49337, 49338, 49339
 49340, 49341, 49342, 49343, 49344, 49345, 49346, 49347, 49348, 49349, 49350, 49351, 49352, 49353, 49354, 49355
 49356, 49357, 49358, 49359, 49360, 49361, 49362, 49363, 49364, 49365, 49366, 49367, 49368, 49369, 49370, 49371
 49372, 49373, 49374, 49375, 49376, 49377, 49378, 49379, 49380, 49381, 49382, 49383, 49384, 49385, 49386, 49387
 49388, 49389, 49390, 49391, 49392, 49393, 49394, 49395, 49396, 49397, 49398, 49399, 49400, 49401, 49402, 49403
 49404, 49405, 49406, 49407, 49408, 49409, 49410, 49411, 49412, 49413, 49414, 49415, 49416, 49417, 50297, 50298
 50299, 50300, 50301, 50302, 50303, 50304, 50305, 50306, 50307, 50308, 50309, 50310, 50311, 50312, 50313, 50314
 50315, 50316, 50317, 50318, 50319, 50320, 50321, 50322, 50323, 50324, 50325, 50326, 50327, 50328, 50329, 50330
 50331, 50332, 50333, 50334, 50335, 50336, 50337, 50338, 50339, 50340, 50341, 50342, 50343, 50344, 50345, 50346
 50347, 50348, 50349, 50350, 50351, 50352, 50353, 50354, 50355, 50356, 50357, 50358, 50359, 50360, 50361, 50362
 50363, 50364, 50365, 50366, 50367, 50368, 50369, 50370, 50371, 50372, 50373, 50374, 50375, 50376, 50377, 50378
 50379, 50380, 50402, 50403, 50404, 50405, 50406, 50407, 50408, 50409, 50410, 50411, 50412, 50413, 50414, 50415
 50416, 50417, 50418, 50419, 50420, 50421, 50422, 50423, 50424, 50425, 50426, 50427, 50428, 50429, 50430, 50431
 50432, 50433, 50434, 50435, 50436, 50437, 50438, 50439, 50440, 50441, 50442, 50443, 50444, 50445, 50446, 50447
 50448, 50449, 50450, 50451, 50452, 50453, 50454, 50455, 50456, 50457, 50458, 50459, 50460, 50461, 50462, 50463
** ... 12 like lines cut
*Elset, elset=BUSH
 48647, 48648, 48649, 48650, 48651, 48652, 48653, 48654, 48655, 48656, 48657, 48658, 48659, 48660, 48661, 48662
 48663, 48664, 48665, 48666, 48667, 48668, 48669, 48670, 48671, 48672, 48673, 48674, 48675, 48676, 48677, 48678
 48679, 48680, 48681, 48682, 48683, 48684, 48685, 48686, 48687, 48688, 48689, 48690, 48691, 48692, 48693, 48694
 48695, 48696, 48697, 48698, 48699, 48700, 48701, 48702, 48703, 48704, 48705, 48706, 48707, 48708, 48709, 48710
 48711, 48712, 48713, 48714, 48715, 48716, 48717, 48718, 48719, 48720, 48721, 48722, 48723, 48724, 48725, 48726
 48727, 48728, 48729, 48730, 48731, 48732, 48733, 48734, 48735, 48736, 48737, 48738, 48739, 48740, 48741, 48742
 48743, 48744, 48745, 48746, 48747, 48748, 48783, 48784, 48785, 48786, 48787, 48788, 48789, 48790, 48791, 48792
 48793, 48794, 48795, 48796, 48797, 48798, 48799, 48800, 48801, 48802, 48803, 48804, 48805, 48806, 48807, 48808
 48809, 48810, 48811, 48812, 48813, 48814, 48815, 48816, 48817, 48818, 48819, 48820, 48821, 48822, 48823, 48824
 48825, 48826, 48827, 48828, 48829, 48830, 48831, 48832, 48833, 48834, 48835, 48836, 48837, 48838, 48839, 48840
 48841, 48842, 48843, 48844, 48845, 48846, 48847, 48848, 48849, 48850, 48851, 48852, 48853, 48854, 48855, 48856
 48857, 48858, 48859, 48860, 48861, 48862, 48863, 48864, 48865, 48866, 48867, 48868, 48869, 48870, 48871, 48872
 48873, 48874, 48875, 48876, 48877, 48878, 48879, 48880, 48881, 48882, 48883, 48884
*Elset, elset=BUSH_IN
 48507, 48508, 48509, 48510, 48511, 48512, 48513, 48514, 48515, 48516, 48517, 48518, 48519, 48520, 48521, 48522
 48523, 48524, 48525, 48526, 48527, 48528, 48529, 48530, 48531, 48532, 48533, 48534, 48535, 48536, 48537, 48538
 48539, 48540, 48541, 48542, 48543, 48544, 48545, 48546, 48547, 48548, 48549, 48550, 48551, 48552, 48553, 48554
 48555, 48556, 48557, 48558, 48559, 48560, 48561, 48562, 48563, 48564, 48565, 48566, 48587, 48588, 48589, 48590
 48591, 48592, 48593, 48594, 48595, 48596, 48597, 48598, 48599, 48600, 48601, 48602, 48603, 48604, 48605, 48606
 48607, 48608, 48609, 48610, 48611, 48612, 48613, 48614, 48615, 48616, 48617, 48618, 48619, 48620, 48621, 48622
 48623, 48624, 48625, 48626, 48627, 48628, 48629, 48630, 48631, 48632, 48633, 48634, 48635, 48636, 48637, 48638
 48639, 48640, 48641, 48642, 48643, 48644, 48645, 48646, 49014, 49015, 49016, 49017, 49018, 49019, 49020, 49021
 49022, 49023, 49034, 49035, 49036, 49037, 49038, 49039, 49040, 49041, 49042, 49043, 49054, 49055, 49056, 49057
 49058, 49059, 49060, 49061, 49062, 49063, 49074, 49075, 49076, 49077, 49078, 49079, 49080, 49081, 49082, 49083
*Elset, elset=LOWER_PANEL
 43084, 43093, 43094, 43104, 43106, 43107, 43115, 43116, 43117, 43126, 43127, 43128, 43136, 43137, 43138, 43149
 43150, 43152, 43159, 43160, 43162, 43164, 43165, 43167, 43169, 43170, 43172, 43173, 43174, 43176, 43178, 43180
 43195, 43196, 43197, 43198, 43199, 43200, 43201, 43202, 43203, 43211, 43213, 43215, 43216, 43217, 43218, 43242
 43243, 43244, 43245, 43247, 43249, 43250, 43251, 43252, 43254, 43255, 43256, 43257, 43259, 43261, 43287, 43288
 43289, 43290, 43291, 43292, 43293, 43294, 43295, 43302, 43303, 43304, 43305, 43306, 43307, 43336, 43337, 43338
 43339, 43340, 43341, 43346, 43347, 43348, 43349, 43350, 43351, 43356, 43357, 43358, 43359, 43360, 43361, 43362
 43363, 43364, 43365, 43366, 43367, 43380, 43381, 43382, 43383, 43384, 43385, 43386, 43387, 43388, 43389, 43390
 43391, 43404, 43405, 43406, 43407, 43408, 43409, 43410, 43411, 43412, 43413, 43414, 43415, 43428, 43429, 43430
 43431, 43432, 43433, 43434, 43435, 43436, 43437, 43438, 43439, 43446, 43447, 43449, 43453, 43454, 43459, 43460
 43461, 43462, 43463, 43464, 43465, 43466, 43467, 43468, 43469, 43470, 43471, 43472, 43473, 43475, 43480, 43481
 43486, 43487, 43490, 43492, 43493, 43494, 43495, 43496, 43497, 43543, 43544, 43549, 43550, 43555, 43556, 43557
 43558, 43559, 43560, 43561, 43562, 43563, 43564, 43565, 43566, 43567, 43568, 43574, 43576, 43579, 43580, 43581
 43582, 43583, 43584, 43585, 43586, 43587, 43588, 43589, 43590, 43633, 43634, 43636, 43640, 43641, 43646, 43647
 43648, 43649, 43650, 43651, 43652, 43653, 43654, 43655, 43656, 43657, 43658, 43659, 43660, 43661, 43662, 43668
 43670, 43673, 43674, 43675, 43676, 43677, 43678, 43679, 43680, 43735, 43737, 43756, 43757, 43776, 43778, 43779
 43819, 43820, 43822, 43830, 43831, 43832, 43843, 43862, 43863, 43864, 43875, 43876, 43878, 43903, 43905, 43906
 43908, 43910, 43911, 43912, 43913, 43914, 43915, 43917, 43918, 43920, 43921, 43922, 43924, 43928, 43929, 43930
 43931, 43932, 43933, 43934, 43935, 43936, 43941, 43943, 43946, 43947, 43948, 43954, 43956, 43957, 43958, 43959
 43960, 43961, 43973, 43974, 43975, 43976, 43978, 43984, 43985, 43987, 43995, 43998, 43999, 44000, 44001, 44010
 44012, 44014, 44015, 44016, 44017, 44019, 44020, 44021, 44022, 44023, 44024, 44025, 44026, 44030, 44031, 44034
** ... 83 like lines cut
*Elset, elset=UPPER_PANEL
 39356, 39357, 39358, 39359, 39360, 39361, 39362, 39363, 39364, 39365, 39366, 39367, 39368, 39369, 39370, 39371
 39372, 39373, 39374, 39375, 39376, 39377, 39378, 39379, 39380, 39381, 39382, 39383, 39384, 39385, 39386, 39387
 39388, 39389, 39390, 39391, 39392, 39393, 39394, 39395, 39396, 39397, 39398, 39399, 39400, 39401, 39402, 39403
 39404, 39405, 39406, 39407, 39408, 39409, 39410, 39411, 39412, 39413, 39414, 39415, 39416, 39417, 39418, 39419
 39420, 39421, 39422, 39423, 39424, 39425, 39426, 39427, 39428, 39429, 39430, 39431, 39432, 39433, 39434, 39435
 39436, 39437, 39438, 39439, 39440, 39441, 39442, 39443, 39444, 39445, 39446, 39447, 39448, 39449, 39450, 39451
 39452, 39453, 39454, 39455, 39456, 39457, 39458, 39459, 39460, 39461, 39462, 39463, 39464, 39465, 39466, 39467
 39468, 39469, 39470, 39471, 39472, 39473, 39474, 39475, 39476, 39477, 39478, 39479, 39480, 39481, 39482, 39483
 39484, 39485, 39486, 39487, 39488, 39489, 39490, 39491, 39492, 39493, 39494, 39495, 39496, 39497, 39498, 39499
 39500, 39501, 39502, 39503, 39504, 39505, 39506, 39507, 39508, 39509, 39510, 39511, 39512, 39513, 39514, 39515
 39516, 39517, 39518, 39519, 39520, 39521, 39522, 39523, 39525, 39526, 39527, 39528, 39529, 39530, 39531, 39532
 39533, 39534, 39535, 39537, 39538, 39539, 39540, 39541, 39542, 39543, 39544, 39545, 39546, 39547, 39548, 39549
 39550, 39551, 39552, 39553, 39554, 39555, 39556, 39557, 39558, 39559, 39560, 39561, 39562, 39563, 39564, 39565
 39566, 39567, 39568, 39569, 39570, 39571, 39572, 39573, 39574, 39575, 39576, 39577, 39578, 39579, 39580, 39581
 39582, 39583, 39584, 39585, 39586, 39587, 39588, 39589, 39590, 39591, 39592, 39593, 39594, 39595, 39596, 39597
 39598, 39599, 39600, 39601, 39602, 39603, 39604, 39605, 39606, 39607, 39608, 39609, 39610, 39611, 39612, 39613
 39614, 39615, 39616, 39617, 39618, 39619, 39620, 39621, 39622, 39623, 39624, 39625, 39626, 39627, 39628, 39629
 39630, 39631, 39632, 39633, 39634, 39635, 39636, 39637, 39638, 39639, 39640, 39641, 39642, 39643, 39644, 39645
 39646, 39647, 39648, 39649, 39650, 39651, 39652, 39653, 39654, 39655, 39656, 39657, 39658, 39659, 39660, 39661
 39662, 39663, 39664, 39665, 39666, 39667, 39668, 39669, 39670, 39671, 39672, 39673, 39674, 39675, 39676, 39677
** ... 114 like lines cut
*Elset, elset=DAMP_BRKT, generate
 49084,  49309,      1
** Section: Section-1-UPPER_PANEL
*Shell General Section, elset=UPPER_PANEL, material=STEEL
3., 
** Section: Section-2-LOWER_PANEL
*Shell General Section, elset=LOWER_PANEL, material=STEEL
3., 
** Section: Section-3-BJ_SOLID
*Solid Section, elset=BJ_SOLID, material=STEEL
,
** Section: Section-4-BOLT
*Solid Section, elset=BOLT, material=STEEL
,
** Section: Section-5-BUSH_IN
*Solid Section, elset=BUSH_IN, material=STEEL
,
** Section: Section-6-BUSH
*Solid Section, elset=BUSH, material=STEEL
,
** Section: Section-7-DAMP_BRKT
*Shell General Section, elset=DAMP_BRKT, material=STEEL
4., 
*End Part
**  
**
** ASSEMBLY
**
*Assembly, name=Assembly
**  
*Instance, name=LCA, part=LCA
*End Instance
**  
*MPC
BEAM, LCA.19085, LCA.23756
BEAM, LCA.19086, LCA.23756
BEAM, LCA.19087, LCA.23756
BEAM, LCA.19088, LCA.23756
BEAM, LCA.19089, LCA.23756
BEAM, LCA.19090, LCA.23756
BEAM, LCA.19091, LCA.23756
BEAM, LCA.19092, LCA.23756
BEAM, LCA.19093, LCA.23756
BEAM, LCA.19094, LCA.23756
BEAM, LCA.19095, LCA.23756
BEAM, LCA.19096, LCA.23756
BEAM, LCA.19097, LCA.23756
BEAM, LCA.19115, LCA.23756
BEAM, LCA.19116, LCA.23756
BEAM, LCA.19117, LCA.23756
BEAM, LCA.19118, LCA.23756
BEAM, LCA.19119, LCA.23756
BEAM, LCA.19120, LCA.23756
BEAM, LCA.19121, LCA.23756
** ... 408 like lines cut
*Nset, nset=BJ, instance=LCA
 23756,
*Nset, nset=BUSH1, instance=LCA
 23758,
*Nset, nset=BUSH2, instance=LCA
 23759,
*Nset, nset=BUSH_WELD_S1, instance=LCA
  9037, 14217, 14276, 14287, 14299, 14310, 14328, 14329, 14333, 14334, 14335, 14337, 14343, 14354, 15105, 15153
 15157, 15160, 15164, 15173, 15177, 15178, 15179, 15181, 15187, 15756, 15856, 15864, 16020, 16184, 16235, 16848
 16850, 17167, 17168, 17283, 17296, 17304
*Nset, nset=BUSH_WELD_S2, instance=LCA
    46,  9633, 14085, 14086, 15610, 15628, 15635, 15636, 15641, 15648, 15652, 15656, 15657, 15663, 15666, 15850
 15924, 16222, 16526, 16550, 16914, 16931, 17009, 22904, 22905, 22914, 22917, 22936, 22947, 22948, 22962, 22967
 22969, 22973, 22991, 23016, 23029, 23031
*Nset, nset=DAMPER, instance=LCA
 23757,
*Nset, nset=PANEL_WELD_S1, instance=LCA
 16055, 16434, 16461, 16700, 16877, 16884, 16885, 16893, 16894, 16907, 16940, 16953, 16963, 16969, 16974, 16975
 16976, 16977, 16979, 17025, 17045, 17055, 17063, 17082, 17094, 17114, 17115, 17129, 17156, 17170, 17188, 17192
 17195, 17208, 17210, 17218, 17242, 17266, 17284, 17318, 17322, 17355, 17382, 17391, 17398
*Nset, nset=PANEL_WELD_S2, instance=LCA
 15821, 15866, 15926, 15945, 15950, 15980, 15988, 16003, 16029, 16040, 16042, 16046, 16053, 16133, 16185, 16190
 16196, 16259, 16323, 16334, 16363, 16422, 16441, 16465, 16472, 16474, 16498, 16506, 16511, 16513, 16522, 16558
 16571, 16575, 16579, 16587, 16600, 16603, 16618, 16642, 16648, 16653, 16654, 16659, 16671
*Nset, nset=PANEL_WELD_S3, instance=LCA
 15745, 15777, 15804, 15808, 15812, 15829, 15837, 15841, 15895, 15969, 16010, 16014, 16061, 16161, 16170, 16234
 16236, 16289, 16290, 16327, 16428, 16710, 16712, 16714, 16725, 16743, 16745, 16747, 16753, 16757, 16771, 16773
 16776, 16782, 16796, 16802, 16855, 16856, 16861, 17141, 22928, 22963, 23004, 23012, 23014, 23019, 23023
*Elset, elset=BOLT1_PRET_BOT, instance=LCA, generate
 50402,  50422,      1
*Elset, elset=BOLT1_PRET_TOP, instance=LCA, generate
 50339,  50359,      1
*Elset, elset=BOLT2_PRET_BOT, instance=LCA, generate
 50582,  50602,      1
*Elset, elset=BOLT2_PRET_TOP, instance=LCA
 50486, 50487, 50488, 50489, 50490, 50491, 50492, 50493, 50494, 50495, 50496, 50497, 50645, 50646, 50647, 50648
 50649, 50650, 50651, 50652, 50653
*Elset, elset=BUSH_WELD, instance=LCA
 48650, 48652, 48654, 48656, 48658, 48659, 48660, 48661, 48662, 48663, 48667, 48669, 48671, 48673, 48675, 48676
 48677, 48678, 48679, 48680, 48684, 48686, 48688, 48690, 48692, 48693, 48694, 48695, 48696, 48697, 48701, 48703
 48705, 48707, 48709, 48710, 48711, 48712, 48713, 48714, 48718, 48720, 48722, 48724, 48726, 48727, 48728, 48729
 48730, 48731, 48735, 48737, 48739, 48741, 48743, 48744, 48745, 48746, 48747, 48748, 48786, 48788, 48790, 48792
 48794, 48795, 48796, 48797, 48798, 48799, 48803, 48805, 48807, 48809, 48811, 48812, 48813, 48814, 48815, 48816
 48820, 48822, 48824, 48826, 48828, 48829, 48830, 48831, 48832, 48833, 48837, 48839, 48841, 48843, 48845, 48846
 48847, 48848, 48849, 48850, 48854, 48856, 48858, 48860, 48862, 48863, 48864, 48865, 48866, 48867, 48871, 48873
 48875, 48877, 48879, 48880, 48881, 48882, 48883, 48884
*Elset, elset=DAMP_M, instance=LCA
 39971, 39972, 39973, 39974, 39975, 39976, 39977, 39978, 39979, 39980, 39981, 40039, 40040, 40041, 40042, 40043
 40044, 40045, 40046, 40047, 40048, 40049, 40076, 40077, 40078, 40079, 40080, 40086, 40087, 40088, 40111, 40112
 40123, 40124, 40125, 40126, 40127, 40128, 40152, 40153, 40154, 40157, 40163, 40166, 40167, 40168, 40169, 40170
 40171, 40172, 40173, 40174, 40175, 40176, 40177, 40178, 40179, 40182, 40183, 40194, 40195, 40197
*Elset, elset=PANEL_WELD_M1, instance=LCA
 42233, 42234, 42236, 42238, 42239, 42240, 42242, 42244, 42257, 42258, 42260, 42262, 42263, 42264, 42266, 42268
 42281, 42282, 42284, 42286, 42287, 42288, 42290, 42292, 42305, 42306, 42308, 42310, 42311, 42312, 42314, 42316
 42359, 42360, 42361, 42362, 42369, 42370, 42371, 42372, 42404, 42405, 42406, 42407, 42414, 42415, 42417, 42418
 42420, 42422, 42424, 42426, 42432, 42434, 42436, 42450, 42452, 42457, 42462, 42464, 42470, 42472, 42475, 42477
 42482, 42483, 42485, 42486, 42487, 42488, 42522, 42527, 42528, 42530, 42536, 42542, 42543, 42554, 42555, 42565
 42566, 42577, 42578, 42589, 42590, 42600, 42602, 42610, 42611, 42618
*Elset, elset=PANEL_WELD_M2, instance=LCA
 42640, 42641, 42643, 42645, 42646, 42647, 42649, 42651, 42664, 42665, 42667, 42669, 42670, 42671, 42673, 42675
 42688, 42689, 42691, 42693, 42694, 42695, 42697, 42699, 42712, 42713, 42715, 42717, 42718, 42719, 42721, 42723
 42736, 42737, 42738, 42739, 42746, 42747, 42748, 42749, 42780, 42781, 42782, 42783, 42790, 42791, 42792, 42793
 42794, 42795, 42831, 42833, 42838, 42843, 42845, 42854, 42856, 42862, 42867, 42870, 42877, 42879, 42883, 42887
 42898, 42899, 42904, 42905, 42906, 42907, 42923, 42928, 42933, 42938, 42940, 42949, 42951, 42961, 42962, 42972
 42973, 42982, 42983, 42995, 42996, 43005, 43006, 43014, 43015, 43022
*Elset, elset=PANEL_WELD_M3, instance=LCA
 41742, 41744, 41752, 41754, 41759, 41764, 41768, 41771, 41776, 41779, 41783, 41786, 41819, 41822, 41832, 41851
 41911, 41912, 41913, 41914, 41917, 41918, 41919, 41920, 41935, 41938, 41941, 41942, 41943, 41944, 42004, 42005
 42007, 42009, 42010, 42011, 42012, 42013, 42031, 42032, 42033, 42034, 42037, 42038, 42039, 42041, 42044, 42045
 42098, 42099, 42101, 42103, 42104, 42105, 42106, 42107, 42122, 42123, 42124, 42125, 42128, 42129, 42130, 42131
 42191, 42192, 42193, 42194, 42198, 42202, 42218, 42219, 42220, 42221, 42224, 42225, 42226, 42228, 42231, 42232
 48934, 48939, 48942, 48946, 48949, 48952, 48958, 48975, 48976, 48979, 48980, 48984, 48987, 48991, 48997, 48998
*Elset, elset=_PRE_TENSION_TOP1_S2, internal, instance=LCA, generate
 50339,  50359,      1
*Elset, elset=_PRE_TENSION_TOP2_S2, internal, instance=LCA
 50486, 50487, 50488, 50489, 50490, 50491, 50492, 50493, 50494, 50495, 50496, 50497, 50645, 50646, 50647, 50648
 50649, 50650, 50651, 50652, 50653
*Elset, elset=_PRE_TENSION_BOT1_S1, internal, instance=LCA, generate
 50402,  50422,      1
*Elset, elset=_PRE_TENSION_BOT2_S1, internal, instance=LCA, generate
 50582,  50602,      1
*Nset, nset=DAMP_S, instance=LCA, generate
 23270,  23305,      1
*Nset, nset=RESPONSE, instance=LCA
 12301, 12404, 19061, 21754, 23757
*Elset, elset=_PRE_TENSION_TOP1_S2_1, internal, instance=LCA, generate
 50339,  50359,      1
*Elset, elset=_PRE_TENSION_TOP2_S2_1, internal, instance=LCA
 50486, 50487, 50488, 50489, 50490, 50491, 50492, 50493, 50494, 50495, 50496, 50497, 50645, 50646, 50647, 50648
 50649, 50650, 50651, 50652, 50653
*Elset, elset=_PRE_TENSION_BOT1_S1_1, internal, instance=LCA, generate
 50402,  50422,      1
*Elset, elset=_PRE_TENSION_BOT2_S1_1, internal, instance=LCA, generate
 50582,  50602,      1
*Elset, elset="_FRT BUSH OUT_S3", internal, instance=LCA
 48783, 48784, 48785, 48786, 48787, 48788, 48789, 48790, 48792, 48800, 48801, 48802, 48803, 48804, 48805, 48806
 48807, 48809, 48817, 48818, 48819, 48820, 48821, 48822, 48823, 48824, 48826, 48834, 48835, 48836, 48837, 48838
 48839, 48840, 48841, 48843, 48851, 48852, 48853, 48854, 48855, 48856, 48857, 48858, 48860, 48868, 48869, 48870
 48871, 48872, 48873, 48874, 48875, 48877
*Elset, elset="_FRT BUSH OUT_S5", internal, instance=LCA
 48791, 48793, 48794, 48795, 48796, 48797, 48798, 48799, 48808, 48810, 48811, 48812, 48813, 48814, 48815, 48816
 48825, 48827, 48828, 48829, 48830, 48831, 48832, 48833, 48842, 48844, 48845, 48846, 48847, 48848, 48849, 48850
 48859, 48861, 48862, 48863, 48864, 48865, 48866, 48867, 48876, 48878, 48879, 48880, 48881, 48882, 48883, 48884
*Elset, elset="_RR BUSH OUT_S3", internal, instance=LCA
 48647, 48648, 48649, 48650, 48651, 48652, 48653, 48654, 48656, 48664, 48665, 48666, 48667, 48668, 48669, 48670
 48671, 48673, 48681, 48682, 48683, 48684, 48685, 48686, 48687, 48688, 48690, 48698, 48699, 48700, 48701, 48702
 48703, 48704, 48705, 48707, 48715, 48716, 48717, 48718, 48719, 48720, 48721, 48722, 48724, 48732, 48733, 48734
 48735, 48736, 48737, 48738, 48739, 48741
*Elset, elset="_RR BUSH OUT_S5", internal, instance=LCA
 48655, 48657, 48658, 48659, 48660, 48661, 48662, 48663, 48672, 48674, 48675, 48676, 48677, 48678, 48679, 48680
 48689, 48691, 48692, 48693, 48694, 48695, 48696, 48697, 48706, 48708, 48709, 48710, 48711, 48712, 48713, 48714
 48723, 48725, 48726, 48727, 48728, 48729, 48730, 48731, 48740, 48742, 48743, 48744, 48745, 48746, 48747, 48748
*Elset, elset="_FRT BUSH IN_S4", internal, instance=LCA
 48507, 48508, 48509, 48513, 48514, 48515, 48516, 48517, 48518, 48519, 48523, 48524, 48525, 48526, 48527, 48528
 48529, 48533, 48534, 48535, 48536, 48537, 48538, 48539, 48543, 48544, 48545, 48546, 48547, 48548, 48549, 48553
 48554, 48555, 48556, 48557, 48558, 48559, 48563, 48564, 48565, 48566, 49054, 49055, 49056, 49060, 49061, 49062
 49063, 49074, 49075, 49076, 49080, 49081, 49082, 49083
*Elset, elset="_FRT BUSH IN_S6", internal, instance=LCA
 48510, 48511, 48512, 48520, 48521, 48522, 48530, 48531, 48532, 48540, 48541, 48542, 48550, 48551, 48552, 48560
 48561, 48562, 49057, 49058, 49059, 49077, 49078, 49079
*Elset, elset="_RR BUSH IN_S4", internal, instance=LCA
 48587, 48588, 48589, 48593, 48594, 48595, 48596, 48597, 48598, 48599, 48603, 48604, 48605, 48606, 48607, 48608
 48609, 48613, 48614, 48615, 48616, 48617, 48618, 48619, 48623, 48624, 48625, 48626, 48627, 48628, 48629, 48633
 48634, 48635, 48636, 48637, 48638, 48639, 48643, 48644, 48645, 48646, 49014, 49015, 49016, 49020, 49021, 49022
 49023, 49034, 49035, 49036, 49040, 49041, 49042, 49043
*Elset, elset="_RR BUSH IN_S6", internal, instance=LCA
 48590, 48591, 48592, 48600, 48601, 48602, 48610, 48611, 48612, 48620, 48621, 48622, 48630, 48631, 48632, 48640
 48641, 48642, 49017, 49018, 49019, 49037, 49038, 49039
*Elset, elset="_FRT BUSH WELD M_S3", internal, instance=LCA
 48794, 48795, 48796, 48797, 48798, 48799, 48811, 48812, 48813, 48814, 48815, 48816, 48828, 48829, 48830, 48831
 48832, 48833, 48845, 48846, 48847, 48848, 48849, 48850, 48862, 48863, 48864, 48865, 48866, 48867, 48879, 48880
 48881, 48882, 48883, 48884
*Elset, elset="_FRT BUSH WELD M_S5", internal, instance=LCA
 48786, 48788, 48790, 48792, 48803, 48805, 48807, 48809, 48820, 48822, 48824, 48826, 48837, 48839, 48841, 48843
 48854, 48856, 48858, 48860, 48871, 48873, 48875, 48877
*Elset, elset="_RR BUSH WELD M_S3", internal, instance=LCA
 48658, 48659, 48660, 48661, 48662, 48663, 48675, 48676, 48677, 48678, 48679, 48680, 48692, 48693, 48694, 48695
 48696, 48697, 48709, 48710, 48711, 48712, 48713, 48714, 48726, 48727, 48728, 48729, 48730, 48731, 48743, 48744
 48745, 48746, 48747, 48748
*Elset, elset="_RR BUSH WELD M_S5", internal, instance=LCA
 48650, 48652, 48654, 48656, 48667, 48669, 48671, 48673, 48684, 48686, 48688, 48690, 48701, 48703, 48705, 48707
 48718, 48720, 48722, 48724, 48735, 48737, 48739, 48741
*Elset, elset="_DAMPER PLATE_SNEG", internal, instance=LCA
 39971, 39972, 39973, 39974, 39975, 39976, 39977, 39978, 39979, 39980, 39981, 40039, 40040, 40041, 40042, 40043
 40044, 40045, 40046, 40047, 40048, 40049, 40076, 40077, 40078, 40079, 40080, 40086, 40087, 40088, 40111, 40112
 40123, 40124, 40125, 40126, 40127, 40128, 40152, 40153, 40154, 40157, 40163, 40166, 40167, 40168, 40169, 40170
 40171, 40172, 40173, 40174, 40175, 40176, 40177, 40178, 40179, 40182, 40183, 40194, 40195, 40197
*Elset, elset="_UPPER BOLT S1_SNEG", internal, instance=LCA, generate
 40751,  40760,      1
*Elset, elset="_UPPER BOLT S2_SNEG", internal, instance=LCA, generate
 40961,  40970,      1
*Elset, elset="_UPPER BOLT S1_1_SPOS", internal, instance=LCA, generate
 40751,  40760,      1
*Elset, elset="_UPPER BOLT S2_1_SPOS", internal, instance=LCA, generate
 40961,  40970,      1
*Elset, elset="_UPPER BOLT M1_S1", internal, instance=LCA, generate
 48249,  48260,      1
*Elset, elset="_UPPER BOLT M2_S1", internal, instance=LCA, generate
 48420,  48431,      1
*Elset, elset="_UPPER BOLT M1_1_S1", internal, instance=LCA, generate
 46529,  46537,      1
*Elset, elset="_UPPER BOLT M2_1_S1", internal, instance=LCA, generate
 46520,  46528,      1
*Elset, elset="_LOWER BOLT M1_1_S2", internal, instance=LCA, generate
 46901,  46909,      1
*Elset, elset="_LOWER BOLT M2_1_S2", internal, instance=LCA, generate
 46892,  46900,      1
*Elset, elset="_LOWER BOLT M1_S2", internal, instance=LCA, generate
 49310,  49321,      1
*Elset, elset="_LOWER BOLT M2_S2", internal, instance=LCA, generate
 49343,  49354,      1
*Elset, elset="_LOWER BOLT S1_1_SPOS", internal, instance=LCA, generate
 45486,  45494,      1
*Elset, elset="_LOWER BOLT S2_1_SPOS", internal, instance=LCA, generate
 45477,  45485,      1
*Elset, elset="_LOWER BOLT S1_SNEG", internal, instance=LCA, generate
 45486,  45494,      1
*Elset, elset="_LOWER BOLT S2_SNEG", internal, instance=LCA, generate
 45477,  45485,      1
*Elset, elset="_PANEL WELD1_SNEG", internal, instance=LCA
 42233, 42234, 42236, 42238, 42239, 42240, 42242, 42244, 42257, 42258, 42260, 42262, 42263, 42264, 42266, 42268
 42281, 42282, 42284, 42286, 42287, 42288, 42290, 42292, 42305, 42306, 42308, 42310, 42311, 42312, 42314, 42316
 42359, 42360, 42361, 42362, 42369, 42370, 42371, 42372, 42404, 42405, 42406, 42407, 42414, 42415, 42417, 42418
 42420, 42422, 42424, 42426, 42432, 42434, 42436, 42450, 42452, 42457, 42462, 42464, 42470, 42472, 42475, 42477
 42482, 42483, 42485, 42486, 42487, 42488, 42522, 42527, 42528, 42530, 42536, 42542, 42543, 42554, 42555, 42565
 42566, 42577, 42578, 42589, 42590, 42600, 42602, 42610, 42611, 42618
*Elset, elset="_PANEL WELD2_SNEG", internal, instance=LCA
 42640, 42641, 42643, 42645, 42646, 42647, 42649, 42651, 42664, 42665, 42667, 42669, 42670, 42671, 42673, 42675
 42688, 42689, 42691, 42693, 42694, 42695, 42697, 42699, 42712, 42713, 42715, 42717, 42718, 42719, 42721, 42723
 42736, 42737, 42738, 42739, 42746, 42747, 42748, 42749, 42780, 42781, 42782, 42783, 42790, 42791, 42792, 42793
 42794, 42795, 42831, 42833, 42838, 42843, 42845, 42854, 42856, 42862, 42867, 42870, 42877, 42879, 42883, 42887
 42898, 42899, 42904, 42905, 42906, 42907, 42923, 42928, 42933, 42938, 42940, 42949, 42951, 42961, 42962, 42972
 42973, 42982, 42983, 42995, 42996, 43005, 43006, 43014, 43015, 43022
*Elset, elset="_PANEL WELD3_SNEG", internal, instance=LCA
 41742, 41744, 41752, 41754, 41759, 41764, 41768, 41771, 41776, 41779, 41783, 41786, 41819, 41822, 41832, 41851
 41911, 41912, 41913, 41914, 41917, 41918, 41919, 41920, 41935, 41938, 41941, 41942, 41943, 41944, 42004, 42005
 42007, 42009, 42010, 42011, 42012, 42013, 42031, 42032, 42033, 42034, 42037, 42038, 42039, 42041, 42044, 42045
 42098, 42099, 42101, 42103, 42104, 42105, 42106, 42107, 42122, 42123, 42124, 42125, 42128, 42129, 42130, 42131
 42191, 42192, 42193, 42194, 42198, 42202, 42218, 42219, 42220, 42221, 42224, 42225, 42226, 42228, 42231, 42232
 48934, 48939, 48942, 48946, 48949, 48952, 48958, 48975, 48976, 48979, 48980, 48984, 48987, 48991, 48997, 48998
*Elset, elset=_PRE_TENSION_TOP1_S2_2, internal, instance=LCA, generate
 50339,  50359,      1
*Elset, elset=_PRE_TENSION_TOP2_S2_2, internal, instance=LCA
 50486, 50487, 50488, 50489, 50490, 50491, 50492, 50493, 50494, 50495, 50496, 50497, 50645, 50646, 50647, 50648
 50649, 50650, 50651, 50652, 50653
*Elset, elset=_PRE_TENSION_BOT1_S1_2, internal, instance=LCA, generate
 50402,  50422,      1
*Elset, elset=_PRE_TENSION_BOT2_S1_2, internal, instance=LCA, generate
 50582,  50602,      1
*Nset, nset=BUSH_WELD_S1_CNS_, internal, instance=LCA
  9037, 14217, 14276, 14287, 14299, 14310, 14328, 14329, 14333, 14334, 14335, 14337, 14343, 14354, 15105, 15153
 15157, 15160, 15164, 15173, 15177, 15178, 15179, 15181, 15187, 15756, 15856, 15864, 16020, 16184, 16235, 16848
 16850, 17167, 17168, 17283, 17296, 17304
*Nset, nset=BUSH_WELD_S2_CNS_, internal, instance=LCA
    46,  9633, 14085, 14086, 15610, 15628, 15635, 15636, 15641, 15648, 15652, 15656, 15657, 15663, 15666, 15850
 15924, 16222, 16526, 16550, 16914, 16931, 17009, 22904, 22905, 22914, 22917, 22936, 22947, 22948, 22962, 22967
 22969, 22973, 22991, 23016, 23029, 23031
*Nset, nset=DAMP_S_CNS_, internal, instance=LCA, generate
 23270,  23305,      1
*Nset, nset=PANEL_WELD_S1_CNS_, internal, instance=LCA
 16055, 16434, 16461, 16700, 16877, 16884, 16885, 16893, 16894, 16907, 16940, 16953, 16963, 16969, 16974, 16975
 16976, 16977, 16979, 17025, 17045, 17055, 17063, 17082, 17094, 17114, 17115, 17129, 17156, 17170, 17188, 17192
 17195, 17208, 17210, 17218, 17242, 17266, 17284, 17318, 17322, 17355, 17382, 17391, 17398
*Nset, nset=PANEL_WELD_S2_CNS_, internal, instance=LCA
 15821, 15866, 15926, 15945, 15950, 15980, 15988, 16003, 16029, 16040, 16042, 16046, 16053, 16133, 16185, 16190
 16196, 16259, 16323, 16334, 16363, 16422, 16441, 16465, 16472, 16474, 16498, 16506, 16511, 16513, 16522, 16558
 16571, 16575, 16579, 16587, 16600, 16603, 16618, 16642, 16648, 16653, 16654, 16659, 16671
*Nset, nset=PANEL_WELD_S3_CNS_, internal, instance=LCA
 15745, 15777, 15804, 15808, 15812, 15829, 15837, 15841, 15895, 15969, 16010, 16014, 16061, 16161, 16170, 16234
 16236, 16289, 16290, 16327, 16428, 16710, 16712, 16714, 16725, 16743, 16745, 16747, 16753, 16757, 16771, 16773
 16776, 16782, 16796, 16802, 16855, 16856, 16861, 17141, 22928, 22963, 23004, 23012, 23014, 23019, 23023
*Elset, elset="_FRT BUSH OUT_S3", internal, instance=LCA
 48783, 48784, 48785, 48786, 48787, 48788, 48789, 48790, 48792, 48800, 48801, 48802, 48803, 48804, 48805, 48806
 48807, 48809, 48817, 48818, 48819, 48820, 48821, 48822, 48823, 48824, 48826, 48834, 48835, 48836, 48837, 48838
 48839, 48840, 48841, 48843, 48851, 48852, 48853, 48854, 48855, 48856, 48857, 48858, 48860, 48868, 48869, 48870
 48871, 48872, 48873, 48874, 48875, 48877
*Elset, elset="_FRT BUSH OUT_S5", internal, instance=LCA
 48791, 48793, 48794, 48795, 48796, 48797, 48798, 48799, 48808, 48810, 48811, 48812, 48813, 48814, 48815, 48816
 48825, 48827, 48828, 48829, 48830, 48831, 48832, 48833, 48842, 48844, 48845, 48846, 48847, 48848, 48849, 48850
 48859, 48861, 48862, 48863, 48864, 48865, 48866, 48867, 48876, 48878, 48879, 48880, 48881, 48882, 48883, 48884
*Surface, type=ELEMENT, name="FRT BUSH OUT"
"_FRT BUSH OUT_S3", S3
"_FRT BUSH OUT_S5", S5
*Elset, elset="_RR BUSH OUT_S3", internal, instance=LCA
 48647, 48648, 48649, 48650, 48651, 48652, 48653, 48654, 48656, 48664, 48665, 48666, 48667, 48668, 48669, 48670
 48671, 48673, 48681, 48682, 48683, 48684, 48685, 48686, 48687, 48688, 48690, 48698, 48699, 48700, 48701, 48702
 48703, 48704, 48705, 48707, 48715, 48716, 48717, 48718, 48719, 48720, 48721, 48722, 48724, 48732, 48733, 48734
 48735, 48736, 48737, 48738, 48739, 48741
*Elset, elset="_RR BUSH OUT_S5", internal, instance=LCA
 48655, 48657, 48658, 48659, 48660, 48661, 48662, 48663, 48672, 48674, 48675, 48676, 48677, 48678, 48679, 48680
 48689, 48691, 48692, 48693, 48694, 48695, 48696, 48697, 48706, 48708, 48709, 48710, 48711, 48712, 48713, 48714
 48723, 48725, 48726, 48727, 48728, 48729, 48730, 48731, 48740, 48742, 48743, 48744, 48745, 48746, 48747, 48748
*Surface, type=ELEMENT, name="RR BUSH OUT"
"_RR BUSH OUT_S3", S3
"_RR BUSH OUT_S5", S5
*Elset, elset="_FRT BUSH IN_S4", internal, instance=LCA
 48507, 48508, 48509, 48513, 48514, 48515, 48516, 48517, 48518, 48519, 48523, 48524, 48525, 48526, 48527, 48528
 48529, 48533, 48534, 48535, 48536, 48537, 48538, 48539, 48543, 48544, 48545, 48546, 48547, 48548, 48549, 48553
 48554, 48555, 48556, 48557, 48558, 48559, 48563, 48564, 48565, 48566, 49054, 49055, 49056, 49060, 49061, 49062
 49063, 49074, 49075, 49076, 49080, 49081, 49082, 49083
*Elset, elset="_FRT BUSH IN_S6", internal, instance=LCA
 48510, 48511, 48512, 48520, 48521, 48522, 48530, 48531, 48532, 48540, 48541, 48542, 48550, 48551, 48552, 48560
 48561, 48562, 49057, 49058, 49059, 49077, 49078, 49079
*Surface, type=ELEMENT, name="FRT BUSH IN"
"_FRT BUSH IN_S4", S4
"_FRT BUSH IN_S6", S6
*Elset, elset="_RR BUSH IN_S4", internal, instance=LCA
 48587, 48588, 48589, 48593, 48594, 48595, 48596, 48597, 48598, 48599, 48603, 48604, 48605, 48606, 48607, 48608
 48609, 48613, 48614, 48615, 48616, 48617, 48618, 48619, 48623, 48624, 48625, 48626, 48627, 48628, 48629, 48633
 48634, 48635, 48636, 48637, 48638, 48639, 48643, 48644, 48645, 48646, 49014, 49015, 49016, 49020, 49021, 49022
 49023, 49034, 49035, 49036, 49040, 49041, 49042, 49043
*Elset, elset="_RR BUSH IN_S6", internal, instance=LCA
 48590, 48591, 48592, 48600, 48601, 48602, 48610, 48611, 48612, 48620, 48621, 48622, 48630, 48631, 48632, 48640
 48641, 48642, 49017, 49018, 49019, 49037, 49038, 49039
*Surface, type=ELEMENT, name="RR BUSH IN"
"_RR BUSH IN_S4", S4
"_RR BUSH IN_S6", S6
*Elset, elset="_FRT BUSH WELD M_S3", internal, instance=LCA
 48794, 48795, 48796, 48797, 48798, 48799, 48811, 48812, 48813, 48814, 48815, 48816, 48828, 48829, 48830, 48831
 48832, 48833, 48845, 48846, 48847, 48848, 48849, 48850, 48862, 48863, 48864, 48865, 48866, 48867, 48879, 48880
 48881, 48882, 48883, 48884
*Elset, elset="_FRT BUSH WELD M_S5", internal, instance=LCA
 48786, 48788, 48790, 48792, 48803, 48805, 48807, 48809, 48820, 48822, 48824, 48826, 48837, 48839, 48841, 48843
 48854, 48856, 48858, 48860, 48871, 48873, 48875, 48877
*Surface, type=ELEMENT, name="FRT BUSH WELD M"
"_FRT BUSH WELD M_S3", S3
"_FRT BUSH WELD M_S5", S5
*Elset, elset="_RR BUSH WELD M_S3", internal, instance=LCA
 48658, 48659, 48660, 48661, 48662, 48663, 48675, 48676, 48677, 48678, 48679, 48680, 48692, 48693, 48694, 48695
 48696, 48697, 48709, 48710, 48711, 48712, 48713, 48714, 48726, 48727, 48728, 48729, 48730, 48731, 48743, 48744
 48745, 48746, 48747, 48748
*Elset, elset="_RR BUSH WELD M_S5", internal, instance=LCA
 48650, 48652, 48654, 48656, 48667, 48669, 48671, 48673, 48684, 48686, 48688, 48690, 48701, 48703, 48705, 48707
 48718, 48720, 48722, 48724, 48735, 48737, 48739, 48741
*Surface, type=ELEMENT, name="RR BUSH WELD M"
"_RR BUSH WELD M_S3", S3
"_RR BUSH WELD M_S5", S5
*Elset, elset="_DAMPER PLATE_SNEG", internal, instance=LCA
 39971, 39972, 39973, 39974, 39975, 39976, 39977, 39978, 39979, 39980, 39981, 40039, 40040, 40041, 40042, 40043
 40044, 40045, 40046, 40047, 40048, 40049, 40076, 40077, 40078, 40079, 40080, 40086, 40087, 40088, 40111, 40112
 40123, 40124, 40125, 40126, 40127, 40128, 40152, 40153, 40154, 40157, 40163, 40166, 40167, 40168, 40169, 40170
 40171, 40172, 40173, 40174, 40175, 40176, 40177, 40178, 40179, 40182, 40183, 40194, 40195, 40197
*Surface, type=ELEMENT, name="DAMPER PLATE"
"_DAMPER PLATE_SNEG", SNEG
*Elset, elset="_UPPER BOLT S1_SNEG", internal, instance=LCA, generate
 40751,  40760,      1
*Surface, type=ELEMENT, name="UPPER BOLT S1"
"_UPPER BOLT S1_SNEG", SNEG
*Elset, elset="_UPPER BOLT S2_SNEG", internal, instance=LCA, generate
 40961,  40970,      1
*Surface, type=ELEMENT, name="UPPER BOLT S2"
"_UPPER BOLT S2_SNEG", SNEG
*Elset, elset="_UPPER BOLT S1_1_SPOS", internal, instance=LCA, generate
 40751,  40760,      1
*Surface, type=ELEMENT, name="UPPER BOLT S1_1"
"_UPPER BOLT S1_1_SPOS", SPOS
*Elset, elset="_UPPER BOLT S2_1_SPOS", internal, instance=LCA, generate
 40961,  40970,      1
*Surface, type=ELEMENT, name="UPPER BOLT S2_1"
"_UPPER BOLT S2_1_SPOS", SPOS
*Elset, elset="_UPPER BOLT M1_S1", internal, instance=LCA, generate
 48249,  48260,      1
*Surface, type=ELEMENT, name="UPPER BOLT M1"
"_UPPER BOLT M1_S1", S1
*Elset, elset="_UPPER BOLT M2_S1", internal, instance=LCA, generate
 48420,  48431,      1
*Surface, type=ELEMENT, name="UPPER BOLT M2"
"_UPPER BOLT M2_S1", S1
*Elset, elset="_UPPER BOLT M1_1_S1", internal, instance=LCA, generate
 46529,  46537,      1
*Surface, type=ELEMENT, name="UPPER BOLT M1_1"
"_UPPER BOLT M1_1_S1", S1
*Elset, elset="_UPPER BOLT M2_1_S1", internal, instance=LCA, generate
 46520,  46528,      1
*Surface, type=ELEMENT, name="UPPER BOLT M2_1"
"_UPPER BOLT M2_1_S1", S1
*Elset, elset="_LOWER BOLT M1_1_S2", internal, instance=LCA, generate
 46901,  46909,      1
*Surface, type=ELEMENT, name="LOWER BOLT M1_1"
"_LOWER BOLT M1_1_S2", S2
*Elset, elset="_LOWER BOLT M2_1_S2", internal, instance=LCA, generate
 46892,  46900,      1
*Surface, type=ELEMENT, name="LOWER BOLT M2_1"
"_LOWER BOLT M2_1_S2", S2
*Elset, elset="_LOWER BOLT M1_S2", internal, instance=LCA, generate
 49310,  49321,      1
*Surface, type=ELEMENT, name="LOWER BOLT M1"
"_LOWER BOLT M1_S2", S2
*Elset, elset="_LOWER BOLT M2_S2", internal, instance=LCA, generate
 49343,  49354,      1
*Surface, type=ELEMENT, name="LOWER BOLT M2"
"_LOWER BOLT M2_S2", S2
*Elset, elset="_LOWER BOLT S1_1_SPOS", internal, instance=LCA, generate
 45486,  45494,      1
*Surface, type=ELEMENT, name="LOWER BOLT S1_1"
"_LOWER BOLT S1_1_SPOS", SPOS
*Elset, elset="_LOWER BOLT S2_1_SPOS", internal, instance=LCA, generate
 45477,  45485,      1
*Surface, type=ELEMENT, name="LOWER BOLT S2_1"
"_LOWER BOLT S2_1_SPOS", SPOS
*Elset, elset="_LOWER BOLT S1_SNEG", internal, instance=LCA, generate
 45486,  45494,      1
*Surface, type=ELEMENT, name="LOWER BOLT S1"
"_LOWER BOLT S1_SNEG", SNEG
*Elset, elset="_LOWER BOLT S2_SNEG", internal, instance=LCA, generate
 45477,  45485,      1
*Surface, type=ELEMENT, name="LOWER BOLT S2"
"_LOWER BOLT S2_SNEG", SNEG
*Elset, elset="_PANEL WELD1_SNEG", internal, instance=LCA
 42233, 42234, 42236, 42238, 42239, 42240, 42242, 42244, 42257, 42258, 42260, 42262, 42263, 42264, 42266, 42268
 42281, 42282, 42284, 42286, 42287, 42288, 42290, 42292, 42305, 42306, 42308, 42310, 42311, 42312, 42314, 42316
 42359, 42360, 42361, 42362, 42369, 42370, 42371, 42372, 42404, 42405, 42406, 42407, 42414, 42415, 42417, 42418
 42420, 42422, 42424, 42426, 42432, 42434, 42436, 42450, 42452, 42457, 42462, 42464, 42470, 42472, 42475, 42477
 42482, 42483, 42485, 42486, 42487, 42488, 42522, 42527, 42528, 42530, 42536, 42542, 42543, 42554, 42555, 42565
 42566, 42577, 42578, 42589, 42590, 42600, 42602, 42610, 42611, 42618
*Surface, type=ELEMENT, name="PANEL WELD1"
"_PANEL WELD1_SNEG", SNEG
*Elset, elset="_PANEL WELD2_SNEG", internal, instance=LCA
 42640, 42641, 42643, 42645, 42646, 42647, 42649, 42651, 42664, 42665, 42667, 42669, 42670, 42671, 42673, 42675
 42688, 42689, 42691, 42693, 42694, 42695, 42697, 42699, 42712, 42713, 42715, 42717, 42718, 42719, 42721, 42723
 42736, 42737, 42738, 42739, 42746, 42747, 42748, 42749, 42780, 42781, 42782, 42783, 42790, 42791, 42792, 42793
 42794, 42795, 42831, 42833, 42838, 42843, 42845, 42854, 42856, 42862, 42867, 42870, 42877, 42879, 42883, 42887
 42898, 42899, 42904, 42905, 42906, 42907, 42923, 42928, 42933, 42938, 42940, 42949, 42951, 42961, 42962, 42972
 42973, 42982, 42983, 42995, 42996, 43005, 43006, 43014, 43015, 43022
*Surface, type=ELEMENT, name="PANEL WELD2"
"_PANEL WELD2_SNEG", SNEG
*Elset, elset="_PANEL WELD3_SNEG", internal, instance=LCA
 41742, 41744, 41752, 41754, 41759, 41764, 41768, 41771, 41776, 41779, 41783, 41786, 41819, 41822, 41832, 41851
 41911, 41912, 41913, 41914, 41917, 41918, 41919, 41920, 41935, 41938, 41941, 41942, 41943, 41944, 42004, 42005
 42007, 42009, 42010, 42011, 42012, 42013, 42031, 42032, 42033, 42034, 42037, 42038, 42039, 42041, 42044, 42045
 42098, 42099, 42101, 42103, 42104, 42105, 42106, 42107, 42122, 42123, 42124, 42125, 42128, 42129, 42130, 42131
 42191, 42192, 42193, 42194, 42198, 42202, 42218, 42219, 42220, 42221, 42224, 42225, 42226, 42228, 42231, 42232
 48934, 48939, 48942, 48946, 48949, 48952, 48958, 48975, 48976, 48979, 48980, 48984, 48987, 48991, 48997, 48998
*Surface, type=ELEMENT, name="PANEL WELD3"
"_PANEL WELD3_SNEG", SNEG
*Elset, elset=_PRE_TENSION_TOP1_S2_3, internal, instance=LCA, generate
 50339,  50359,      1
*Surface, type=ELEMENT, name=PRE_TENSION_TOP1
_PRE_TENSION_TOP1_S2_3, S2
*Elset, elset=_PRE_TENSION_TOP2_S2_3, internal, instance=LCA
 50486, 50487, 50488, 50489, 50490, 50491, 50492, 50493, 50494, 50495, 50496, 50497, 50645, 50646, 50647, 50648
 50649, 50650, 50651, 50652, 50653
*Surface, type=ELEMENT, name=PRE_TENSION_TOP2
_PRE_TENSION_TOP2_S2_3, S2
*Elset, elset=_PRE_TENSION_BOT1_S1_3, internal, instance=LCA, generate
 50402,  50422,      1
*Surface, type=ELEMENT, name=PRE_TENSION_BOT1
_PRE_TENSION_BOT1_S1_3, S1
*Elset, elset=_PRE_TENSION_BOT2_S1_3, internal, instance=LCA, generate
 50582,  50602,      1
*Surface, type=ELEMENT, name=PRE_TENSION_BOT2
_PRE_TENSION_BOT2_S1_3, S1
*Surface, type=NODE, name=BUSH_WELD_S1_CNS__CNS_, internal
BUSH_WELD_S1_CNS_, 1.
*Surface, type=NODE, name=BUSH_WELD_S2_CNS__CNS_, internal
BUSH_WELD_S2_CNS_, 1.
*Surface, type=NODE, name=DAMP_S_CNS__CNS_, internal
DAMP_S_CNS_, 1.
*Surface, type=NODE, name=PANEL_WELD_S1_CNS__CNS_, internal
PANEL_WELD_S1_CNS_, 1.
*Surface, type=NODE, name=PANEL_WELD_S2_CNS__CNS_, internal
PANEL_WELD_S2_CNS_, 1.
*Surface, type=NODE, name=PANEL_WELD_S3_CNS__CNS_, internal
PANEL_WELD_S3_CNS_, 1.
** Constraint: WELD1-1
*Tie, name=WELD1-1, adjust=no, position tolerance=3.
BUSH_WELD_S1_CNS__CNS_, "FRT BUSH WELD M"
** Constraint: WELD2-1
*Tie, name=WELD2-1, adjust=no, position tolerance=3.
BUSH_WELD_S2_CNS__CNS_, "RR BUSH WELD M"
** Constraint: WELD3-1
*Tie, name=WELD3-1, adjust=no, position tolerance=4.
DAMP_S_CNS__CNS_, "DAMPER PLATE"
** Constraint: WELD4-1
*Tie, name=WELD4-1, adjust=no, position tolerance=3.
PANEL_WELD_S1_CNS__CNS_, "PANEL WELD1"
** Constraint: WELD5-1
*Tie, name=WELD5-1, adjust=no, position tolerance=3.
PANEL_WELD_S2_CNS__CNS_, "PANEL WELD2"
** Constraint: WELD6-1
*Tie, name=WELD6-1, adjust=no, position tolerance=3.
PANEL_WELD_S3_CNS__CNS_, "PANEL WELD3"
*Node
      1,           0.,           0.,           0.
*Nset, nset=_Bolt1_LOAD_blrn_, internal
1, 
** Pre-Tension Section for Bolt Load: Bolt1_LOAD
*Pre-tension Section, surface= PRE_TENSION_TOP1, node=_Bolt1_LOAD_blrn_
         -0.,          -0.,          -1.
*Node
      2,           0.,           0.,           0.
*Nset, nset=_Bolt2_LOAD_blrn_, internal
2, 
** Pre-Tension Section for Bolt Load: Bolt2_LOAD
*Pre-tension Section, surface= PRE_TENSION_TOP2, node=_Bolt2_LOAD_blrn_
         -0.,          -0.,          -1.
*End Assembly
** 
** MATERIALS
** 
*Material, name=STEEL
*Density
 7.8e-09,
*Elastic
200000., 0.3
** 
** INTERACTION PROPERTIES
** 
*Surface Interaction, name=BOLT_CONTACT_PROPERTY
1.,
*Friction, rough
*Surface Behavior, no separation, pressure-overclosure=HARD
*Surface Interaction, name=INTERFERENCE_FIT_PROPERTY
1.,
*Friction, rough
*Surface Behavior, no separation, pressure-overclosure=HARD
** 
** BOUNDARY CONDITIONS
** 
** Name: Disp-BC-1 Type: Displacement/Rotation
*Boundary
BJ, 3, 3
** Name: Disp-BC-2 Type: Displacement/Rotation
*Boundary
BUSH1, 2, 2
BUSH1, 3, 3
** Name: Disp-BC-3 Type: Displacement/Rotation
*Boundary
BUSH2, 1, 1
BUSH2, 2, 2
BUSH2, 3, 3
** 
** INTERACTIONS
** 
** Interaction: BOLT_CONTACT_PROPERTY-1
*Contact Pair, interaction=BOLT_CONTACT_PROPERTY, type=SURFACE TO SURFACE, adjust=1.
"UPPER BOLT S1", "UPPER BOLT M1"
** Interaction: BOLT_CONTACT_PROPERTY-2
*Contact Pair, interaction=BOLT_CONTACT_PROPERTY, type=SURFACE TO SURFACE, adjust=1.
"UPPER BOLT S1_1", "UPPER BOLT M1_1"
** Interaction: BOLT_CONTACT_PROPERTY-3
*Contact Pair, interaction=BOLT_CONTACT_PROPERTY, type=SURFACE TO SURFACE, adjust=1.
"LOWER BOLT S1", "LOWER BOLT M1"
** Interaction: BOLT_CONTACT_PROPERTY-4
*Contact Pair, interaction=BOLT_CONTACT_PROPERTY, type=SURFACE TO SURFACE, adjust=1.
"LOWER BOLT S1_1", "LOWER BOLT M1_1"
** Interaction: BOLT_CONTACT_PROPERTY-5
*Contact Pair, interaction=BOLT_CONTACT_PROPERTY, type=SURFACE TO SURFACE, adjust=1.
"UPPER BOLT S2", "UPPER BOLT M2"
** Interaction: BOLT_CONTACT_PROPERTY-6
*Contact Pair, interaction=BOLT_CONTACT_PROPERTY, type=SURFACE TO SURFACE, adjust=1.
"UPPER BOLT S2_1", "UPPER BOLT M2_1"
** Interaction: BOLT_CONTACT_PROPERTY-7
*Contact Pair, interaction=BOLT_CONTACT_PROPERTY, type=SURFACE TO SURFACE, adjust=1.
"LOWER BOLT S2", "LOWER BOLT M2"
** Interaction: BOLT_CONTACT_PROPERTY-8
*Contact Pair, interaction=BOLT_CONTACT_PROPERTY, type=SURFACE TO SURFACE, adjust=1.
"LOWER BOLT S2_1", "LOWER BOLT M2_1"
** Interaction: INTERFERENCE_FIT_PROPERTY-1
*Contact Pair, interaction=INTERFERENCE_FIT_PROPERTY
"FRT BUSH IN", "FRT BUSH OUT"
** Interaction: INTERFERENCE_FIT_PROPERTY-2
*Contact Pair, interaction=INTERFERENCE_FIT_PROPERTY
"RR BUSH IN", "RR BUSH OUT"
** ----------------------------------------------------------------
** 
** STEP: Interference Fit
** 
*Step, name="Interference Fit", nlgeom=YES
Interference Fit Analysis
*Static
1., 1., 1e-05, 1.
** 
** BOUNDARY CONDITIONS
** 
** Name: Bolt1_LOAD Type: Bolt load
*Boundary
_Bolt1_LOAD_blrn_, 1, 1
** Name: Bolt2_LOAD Type: Bolt load
*Boundary
_Bolt2_LOAD_blrn_, 1, 1
** 
** INTERACTIONS
** 
** Interaction: INTERFERENCE_FIT_PROPERTY-1
*Contact Interference, shrink
"FRT BUSH IN", "FRT BUSH OUT"
** Interaction: INTERFERENCE_FIT_PROPERTY-2
*Contact Interference, shrink
"RR BUSH IN", "RR BUSH OUT"
** 
** OUTPUT REQUESTS
** 
*Restart, write, frequency=0
** 
** FIELD OUTPUT: F-Output-1
** 
*Output, field
*Node Output
U, 
*Element Output
S, 
*Output, history, frequency=0
*End Step
** ----------------------------------------------------------------
** 
** STEP: Modal Analysis 1
** 
** ----------------------------------------------------------------
** 
** STEP: Bolt Assembly Load
** 
*Step, name="Bolt Assembly Load", nlgeom=YES
Bolt Assembly Load
*Static
.2, 1., 1e-05, 1.
** 
** BOUNDARY CONDITIONS
** 
** LOADS
** 
** Name: Bolt1_LOAD   Type: Bolt load
*Boundary
_Bolt1_LOAD_blrn_, 1, 1, 8.
** Name: Bolt2_LOAD   Type: Bolt load
_Bolt2_LOAD_blrn_, 1, 1, 8.
** 
** OUTPUT REQUESTS
** 
*Restart, write, frequency=0
** 
** FIELD OUTPUT: F-Output-1
** 
*Output, field
*Node Output
U, 
*Element Output
S, 
*Output, history, frequency=0
*End Step
** ----------------------------------------------------------------
** 
** STEP: Modal Analysis 2
** 
** ----------------------------------------------------------------
** 
** STEP: Spring Load
** 
*Step, name="Spring Load", nlgeom=YES
Spring/Damper Assembly Load
*Static
0.2, 1., 1e-05, 1.
** 
** BOUNDARY CONDITIONS
** 
** LOADS
** 
** Name: Damper_Load   Type: Concentrated force
*Cload, op=NEW
DAMPER, 2, 1000.
DAMPER, 3, -7500.
** 
** OUTPUT REQUESTS
** 
*Restart, write, frequency=0
** 
** FIELD OUTPUT: F-Output-1
** 
*Output, field
*Node Output
U, 
*Element Output
S, 
*Output, history, frequency=0
*End Step
** ----------------------------------------------------------------
** 
** STEP: Modal Analysis 3
** 
