*Heading
** Job name: Job-1 Model name: Model-3D
** Generated by: Abaqus/CAE 2023.HF4
*Preprint, echo=NO, model=NO, history=NO, contact=NO
**
** PARTS
**
*Part, name=elastic-hold-plate
*Node
      1, 0.0185979996, 0.0599999987,           0.
      2, 0.0185979996, 0.0181120001,           0.
      3,           0., 0.0181120001,           0.
      4,           0., 0.0599999987,           0.
      5, 0.0185979996, 0.0181120001,          10.
      6,           0., 0.0181120001,          10.
      7,           0., 0.0599999987,          10.
      8, 0.0185979996, 0.0599999987,          10.
      9, 0.0529999994, 0.0181120001,          10.
     10, 0.0529999994, 0.0181120001,           0.
     11, 0.0529999994, 0.0599999987,           0.
     12, 0.0529999994, 0.0599999987,          10.
     13, 0.0185979996,           0.,          10.
     14, 0.0529999994,           0.,          10.
     15, 0.0185979996,           0.,           0.
     16, 0.0529999994,           0.,           0.
     17,           0., 0.00400000019,          10.
     18, 0.00400000019,           0.,          10.
     19, 0.00400000019,           0.,           0.
     20,           0., 0.00400000019,           0.
** ... 9040 like lines cut
*Element, type=C3D8T
  1,    8,   96,  871,  125,    1,   21,  711,   76
  2,   96,   95,  872,  871,   21,   22,  712,  711
  3,   95,   94,  873,  872,   22,   23,  713,  712
  4,   94,   93,  874,  873,   23,   24,  714,  713
  5,   93,   92,  875,  874,   24,   25,  715,  714
  6,   92,   91,  876,  875,   25,   26,  716,  715
  7,   91,   90,  877,  876,   26,   27,  717,  716
  8,   90,   89,  878,  877,   27,   28,  718,  717
  9,   89,   88,  879,  878,   28,   29,  719,  718
 10,   88,   87,  880,  879,   29,   30,  720,  719
 11,   87,   86,  881,  880,   30,   31,  721,  720
 12,   86,   85,  882,  881,   31,   32,  722,  721
 13,   85,   84,  883,  882,   32,   33,  723,  722
 14,   84,   83,  884,  883,   33,   34,  724,  723
 15,   83,   82,  885,  884,   34,   35,  725,  724
 16,   82,   81,  886,  885,   35,   36,  726,  725
 17,   81,   80,  887,  886,   36,   37,  727,  726
 18,   80,   79,  888,  887,   37,   38,  728,  727
 19,   79,   78,  889,  888,   38,   39,  729,  728
 20,   78,   77,  890,  889,   39,   40,  730,  729
** ... 4358 like lines cut
*Nset, nset=Set-1, generate
    1,  9060,     1
*Elset, elset=Set-1, generate
    1,  4378,     1
** Section: Section-1
*Solid Section, elset=Set-1, material=Material-1
10.,
*End Part
**  
**
** ASSEMBLY
**
*Assembly, name=Assembly
**  
*Instance, name=elastic-hold-plate-1, part=elastic-hold-plate
*End Instance
**  
*Nset, nset=Set-1, instance=elastic-hold-plate-1, generate
    1,  9060,     1
*Elset, elset=Set-1, instance=elastic-hold-plate-1, generate
    1,  4378,     1
*Nset, nset=Set-2, instance=elastic-hold-plate-1
   3,   4,   6,   7,  17,  20,  49,  50,  51,  52,  53,  54,  55,  56,  57,  58
  59,  60,  61,  62,  63,  64,  65,  66,  67,  68, 105, 106, 107, 108, 109, 110
 111, 112, 113, 114, 115, 116, 117, 118, 119, 120, 121, 122, 123, 124, 301, 302
 303, 304, 305, 306, 307, 308, 309, 310, 311, 312, 313, 314, 315, 316, 317, 318
 319, 320, 321, 322, 323, 324, 325, 326, 327, 328, 329, 330, 331, 332, 333, 334
 335, 336, 337, 338, 339, 340, 341, 342, 343, 344, 345, 346, 347, 348, 349, 350
 351, 352, 353, 354, 355, 356, 357, 358, 359, 360, 361, 362, 363, 364, 365, 366
 367, 368, 369, 370, 371, 640, 641, 642, 643, 644, 645, 646, 647, 648, 649, 650
 651, 652, 653, 654, 655, 656, 657, 658, 659, 660, 661, 662, 663, 664, 665, 666
 667, 668, 669, 670, 671, 672, 673, 674, 675, 676, 677, 678, 679, 680, 681, 682
 683, 684, 685, 686, 687, 688, 689, 690, 691, 692, 693, 694, 695, 696, 697, 698
 699, 700, 701, 702, 703, 704, 705, 706, 707, 708, 709, 710
*Elset, elset=Set-2, instance=elastic-hold-plate-1
  169,  170,  171,  172,  173,  174,  175,  176,  177,  178,  179,  180,  181,  182,  183,  184
  185,  186,  187,  188,  189,  752,  756,  759,  787,  788,  789,  790,  791,  792,  793,  794
  795,  796,  797,  798,  799,  800,  801,  802,  803,  804,  805,  806,  807,  808,  810,  811
  812,  813,  814,  815,  816,  817,  818,  819,  820,  821,  822,  823,  824,  825,  826,  827
  828,  829,  830,  831,  832,  833,  834,  835,  836,  837,  838,  981,  983, 1007, 1009, 1011
 1014, 1015, 1016, 1018, 1020, 1025, 1040, 1058, 1063, 1072, 1171, 1208, 2004
*Nset, nset=Set-3, instance=elastic-hold-plate-1
  13,  14,  15,  16,  18,  19, 245, 246, 247, 248, 249, 250, 251, 252, 253, 254
 255, 256, 257, 258, 259, 260, 277, 278, 279, 280, 281, 282, 283, 284, 285, 286
 287, 288, 289, 290, 291, 292, 434, 435, 436, 437, 438, 439, 440, 441, 442, 443
 444, 445, 446, 447, 448, 449, 450, 451, 452, 453, 454, 455, 456, 457, 458, 459
 460, 461, 462, 463, 464, 465, 466, 467, 468, 469, 470, 471, 472, 473, 474, 475
 476, 477, 478, 479, 480, 481, 482, 483, 484, 485, 486, 487, 488, 489, 490, 491
 492, 493, 494, 495, 496, 497, 498, 499, 500, 501, 502, 503, 504, 505, 506, 507
 508, 509, 510, 511, 512, 513, 514, 515, 516, 517, 518, 519, 520, 521, 522, 523
 524, 525, 526, 527, 528, 529, 530, 531, 532, 533, 534, 535, 536, 537, 538, 539
 540, 541, 542, 543, 544, 545, 546, 547, 548, 549, 550, 551, 552, 553, 554, 555
 556, 557, 558, 559, 560, 561, 562, 563, 564, 565, 566, 567, 568, 569, 570, 571
 572, 573, 574, 575, 576, 577
*Elset, elset=Set-3, instance=elastic-hold-plate-1
  683,  684,  685,  686,  687,  688,  689,  690,  691,  692,  693,  694,  695,  696,  697,  698
  699,  715,  723,  780,  839,  885,  886,  887,  888,  889,  890,  891,  892,  894,  895,  896
  897,  898,  899,  900,  901,  902,  903,  904,  905,  906,  907,  909,  910,  911,  912,  913
  914,  915,  916,  917,  918,  919,  920,  921,  922,  923,  924,  926,  927,  928,  929,  930
  931,  932,  933,  934,  935,  936,  937,  938,  941,  943,  965,  969,  970,  977, 1075, 1080
 1085, 1088, 1099, 1103, 1114, 1118, 1126, 1246, 4297, 4298
*Nset, nset=Set-4, instance=elastic-hold-plate-1
   3,   4,   6,   7,  17,  20,  49,  50,  51,  52,  53,  54,  55,  56,  57,  58
  59,  60,  61,  62,  63,  64,  65,  66,  67,  68, 105, 106, 107, 108, 109, 110
 111, 112, 113, 114, 115, 116, 117, 118, 119, 120, 121, 122, 123, 124, 301, 302
 303, 304, 305, 306, 307, 308, 309, 310, 311, 312, 313, 314, 315, 316, 317, 318
 319, 320, 321, 322, 323, 324, 325, 326, 327, 328, 329, 330, 331, 332, 333, 334
 335, 336, 337, 338, 339, 340, 341, 342, 343, 344, 345, 346, 347, 348, 349, 350
 351, 352, 353, 354, 355, 356, 357, 358, 359, 360, 361, 362, 363, 364, 365, 366
 367, 368, 369, 370, 371, 640, 641, 642, 643, 644, 645, 646, 647, 648, 649, 650
 651, 652, 653, 654, 655, 656, 657, 658, 659, 660, 661, 662, 663, 664, 665, 666
 667, 668, 669, 670, 671, 672, 673, 674, 675, 676, 677, 678, 679, 680, 681, 682
 683, 684, 685, 686, 687, 688, 689, 690, 691, 692, 693, 694, 695, 696, 697, 698
 699, 700, 701, 702, 703, 704, 705, 706, 707, 708, 709, 710
*Elset, elset=Set-4, instance=elastic-hold-plate-1
  169,  170,  171,  172,  173,  174,  175,  176,  177,  178,  179,  180,  181,  182,  183,  184
  185,  186,  187,  188,  189,  752,  756,  759,  787,  788,  789,  790,  791,  792,  793,  794
  795,  796,  797,  798,  799,  800,  801,  802,  803,  804,  805,  806,  807,  808,  810,  811
  812,  813,  814,  815,  816,  817,  818,  819,  820,  821,  822,  823,  824,  825,  826,  827
  828,  829,  830,  831,  832,  833,  834,  835,  836,  837,  838,  981,  983, 1007, 1009, 1011
 1014, 1015, 1016, 1018, 1020, 1025, 1040, 1058, 1063, 1072, 1171, 1208, 2004
*Nset, nset=Set-5, instance=elastic-hold-plate-1
  13,  14,  15,  16,  18,  19, 245, 246, 247, 248, 249, 250, 251, 252, 253, 254
 255, 256, 257, 258, 259, 260, 277, 278, 279, 280, 281, 282, 283, 284, 285, 286
 287, 288, 289, 290, 291, 292, 434, 435, 436, 437, 438, 439, 440, 441, 442, 443
 444, 445, 446, 447, 448, 449, 450, 451, 452, 453, 454, 455, 456, 457, 458, 459
 460, 461, 462, 463, 464, 465, 466, 467, 468, 469, 470, 471, 472, 473, 474, 475
 476, 477, 478, 479, 480, 481, 482, 483, 484, 485, 486, 487, 488, 489, 490, 491
 492, 493, 494, 495, 496, 497, 498, 499, 500, 501, 502, 503, 504, 505, 506, 507
 508, 509, 510, 511, 512, 513, 514, 515, 516, 517, 518, 519, 520, 521, 522, 523
 524, 525, 526, 527, 528, 529, 530, 531, 532, 533, 534, 535, 536, 537, 538, 539
 540, 541, 542, 543, 544, 545, 546, 547, 548, 549, 550, 551, 552, 553, 554, 555
 556, 557, 558, 559, 560, 561, 562, 563, 564, 565, 566, 567, 568, 569, 570, 571
 572, 573, 574, 575, 576, 577
*Elset, elset=Set-5, instance=elastic-hold-plate-1
  683,  684,  685,  686,  687,  688,  689,  690,  691,  692,  693,  694,  695,  696,  697,  698
  699,  715,  723,  780,  839,  885,  886,  887,  888,  889,  890,  891,  892,  894,  895,  896
  897,  898,  899,  900,  901,  902,  903,  904,  905,  906,  907,  909,  910,  911,  912,  913
  914,  915,  916,  917,  918,  919,  920,  921,  922,  923,  924,  926,  927,  928,  929,  930
  931,  932,  933,  934,  935,  936,  937,  938,  941,  943,  965,  969,  970,  977, 1075, 1080
 1085, 1088, 1099, 1103, 1114, 1118, 1126, 1246, 4297, 4298
*Nset, nset=Set-6, instance=elastic-hold-plate-1
   3,   4,   6,   7,  17,  20,  49,  50,  51,  52,  53,  54,  55,  56,  57,  58
  59,  60,  61,  62,  63,  64,  65,  66,  67,  68, 105, 106, 107, 108, 109, 110
 111, 112, 113, 114, 115, 116, 117, 118, 119, 120, 121, 122, 123, 124, 301, 302
 303, 304, 305, 306, 307, 308, 309, 310, 311, 312, 313, 314, 315, 316, 317, 318
 319, 320, 321, 322, 323, 324, 325, 326, 327, 328, 329, 330, 331, 332, 333, 334
 335, 336, 337, 338, 339, 340, 341, 342, 343, 344, 345, 346, 347, 348, 349, 350
 351, 352, 353, 354, 355, 356, 357, 358, 359, 360, 361, 362, 363, 364, 365, 366
 367, 368, 369, 370, 371, 640, 641, 642, 643, 644, 645, 646, 647, 648, 649, 650
 651, 652, 653, 654, 655, 656, 657, 658, 659, 660, 661, 662, 663, 664, 665, 666
 667, 668, 669, 670, 671, 672, 673, 674, 675, 676, 677, 678, 679, 680, 681, 682
 683, 684, 685, 686, 687, 688, 689, 690, 691, 692, 693, 694, 695, 696, 697, 698
 699, 700, 701, 702, 703, 704, 705, 706, 707, 708, 709, 710
*Elset, elset=Set-6, instance=elastic-hold-plate-1
  169,  170,  171,  172,  173,  174,  175,  176,  177,  178,  179,  180,  181,  182,  183,  184
  185,  186,  187,  188,  189,  752,  756,  759,  787,  788,  789,  790,  791,  792,  793,  794
  795,  796,  797,  798,  799,  800,  801,  802,  803,  804,  805,  806,  807,  808,  810,  811
  812,  813,  814,  815,  816,  817,  818,  819,  820,  821,  822,  823,  824,  825,  826,  827
  828,  829,  830,  831,  832,  833,  834,  835,  836,  837,  838,  981,  983, 1007, 1009, 1011
 1014, 1015, 1016, 1018, 1020, 1025, 1040, 1058, 1063, 1072, 1171, 1208, 2004
*Nset, nset=Set-7, instance=elastic-hold-plate-1
    1,    2,    3,    4,   10,   11,   15,   16,   19,   20,   21,   22,   23,   24,   25,   26
   27,   28,   29,   30,   31,   32,   33,   34,   35,   36,   37,   38,   39,   40,   41,   42
   43,   44,   45,   46,   47,   48,   49,   50,   51,   52,   53,   54,   55,   56,   57,   58
   59,   60,   61,   62,   63,   64,   65,   66,   67,   68,   69,   70,   71,   72,   73,   74
   75,   76,  133,  134,  135,  136,  137,  138,  139,  140,  141,  142,  143,  144,  145,  146
  147,  148,  149,  150,  151,  152,  205,  206,  207,  208,  209,  210,  211,  212,  213,  214
  215,  216,  217,  218,  219,  220,  221,  222,  223,  224,  225,  226,  227,  228,  229,  230
  231,  232,  233,  234,  235,  236,  269,  270,  271,  272,  273,  274,  275,  276,  277,  278
  279,  280,  281,  282,  283,  284,  285,  286,  287,  288,  289,  290,  291,  292,  293,  294
  295,  296,  297,  298,  299,  300,  506,  507,  508,  509,  510,  511,  512,  513,  514,  515
  516,  517,  518,  519,  520,  521,  522,  523,  524,  525,  526,  527,  528,  529,  530,  531
  532,  533,  534,  535,  536,  537,  538,  539,  540,  541,  542,  543,  544,  545,  546,  547
  548,  549,  550,  551,  552,  553,  554,  555,  556,  557,  558,  559,  560,  561,  562,  563
  564,  565,  566,  567,  568,  569,  570,  571,  572,  573,  574,  575,  576,  577,  578,  579
  580,  581,  582,  583,  584,  585,  586,  587,  588,  589,  590,  591,  592,  593,  594,  595
  596,  597,  598,  599,  600,  601,  602,  603,  604,  605,  606,  607,  608,  609,  610,  611
  612,  613,  614,  615,  616,  617,  618,  619,  620,  621,  622,  623,  624,  625,  626,  627
  628,  629,  630,  631,  632,  633,  634,  635,  636,  637,  638,  639,  640,  641,  642,  643
  644,  645,  646,  647,  648,  649,  650,  651,  652,  653,  654,  655,  656,  657,  658,  659
  660,  661,  662,  663,  664,  665,  666,  667,  668,  669,  670,  671,  672,  673,  674,  675
** ... 264 like lines cut
*Elset, elset=Set-7, instance=elastic-hold-plate-1, generate
    1,  4378,     1
*Nset, nset=Set-8, instance=elastic-hold-plate-1
    1,    2,    3,    4,    5,    6,    7,    8,    9,   10,   11,   12,   13,   14,   15,   16
   21,   22,   23,   24,   25,   26,   27,   28,   29,   30,   31,   32,   33,   34,   35,   36
   37,   38,   39,   40,   41,   42,   43,   44,   45,   46,   47,   48,   49,   50,   51,   52
   53,   54,   55,   56,   57,   58,   59,   60,   61,   62,   63,   64,   65,   66,   67,   68
   69,   70,   71,   72,   73,   74,   75,   76,   77,   78,   79,   80,   81,   82,   83,   84
   85,   86,   87,   88,   89,   90,   91,   92,   93,   94,   95,   96,   97,   98,   99,  100
  101,  102,  103,  104,  105,  106,  107,  108,  109,  110,  111,  112,  113,  114,  115,  116
  117,  118,  119,  120,  121,  122,  123,  124,  125,  126,  127,  128,  129,  130,  131,  132
  133,  134,  135,  136,  137,  138,  139,  140,  141,  142,  143,  144,  145,  146,  147,  148
  149,  150,  151,  152,  153,  154,  155,  156,  157,  158,  159,  160,  161,  162,  163,  164
  165,  166,  167,  168,  169,  170,  171,  172,  173,  174,  175,  176,  177,  178,  179,  180
  181,  182,  183,  184,  185,  186,  187,  188,  189,  190,  191,  192,  193,  194,  195,  196
  197,  198,  199,  200,  201,  202,  203,  204,  205,  206,  207,  208,  209,  210,  211,  212
  213,  214,  215,  216,  217,  218,  219,  220,  221,  222,  223,  224,  225,  226,  227,  228
  229,  230,  231,  232,  233,  234,  235,  236,  237,  238,  239,  240,  241,  242,  243,  244
  245,  246,  247,  248,  249,  250,  251,  252,  253,  254,  255,  256,  257,  258,  259,  260
  261,  262,  263,  264,  265,  266,  267,  268,  269,  270,  271,  272,  273,  274,  275,  276
  277,  278,  279,  280,  281,  282,  283,  284,  285,  286,  287,  288,  289,  290,  291,  292
  293,  294,  295,  296,  297,  298,  299,  300,  711,  712,  713,  714,  715,  716,  717,  718
  719,  720,  721,  722,  723,  724,  725,  726,  727,  728,  729,  730,  731,  732,  733,  734
** ... 75 like lines cut
*Elset, elset=Set-8, instance=elastic-hold-plate-1, generate
   1,  699,    1
*Nset, nset=Set-9, instance=elastic-hold-plate-1, generate
    1,  9060,     1
*Elset, elset=Set-9, instance=elastic-hold-plate-1, generate
    1,  4378,     1
*Nset, nset=Set-10, instance=elastic-hold-plate-1
    5,    6,    7,    8,    9,   12,   13,   14,   17,   18,   77,   78,   79,   80,   81,   82
   83,   84,   85,   86,   87,   88,   89,   90,   91,   92,   93,   94,   95,   96,   97,   98
   99,  100,  101,  102,  103,  104,  105,  106,  107,  108,  109,  110,  111,  112,  113,  114
  115,  116,  117,  118,  119,  120,  121,  122,  123,  124,  125,  126,  127,  128,  129,  130
  131,  132,  153,  154,  155,  156,  157,  158,  159,  160,  161,  162,  163,  164,  165,  166
  167,  168,  169,  170,  171,  172,  173,  174,  175,  176,  177,  178,  179,  180,  181,  182
  183,  184,  185,  186,  187,  188,  189,  190,  191,  192,  193,  194,  195,  196,  197,  198
  199,  200,  201,  202,  203,  204,  237,  238,  239,  240,  241,  242,  243,  244,  245,  246
  247,  248,  249,  250,  251,  252,  253,  254,  255,  256,  257,  258,  259,  260,  261,  262
  263,  264,  265,  266,  267,  268,  301,  302,  303,  304,  305,  306,  307,  308,  309,  310
  311,  312,  313,  314,  315,  316,  317,  318,  319,  320,  321,  322,  323,  324,  325,  326
  327,  328,  329,  330,  331,  332,  333,  334,  335,  336,  337,  338,  339,  340,  341,  342
  343,  344,  345,  346,  347,  348,  349,  350,  351,  352,  353,  354,  355,  356,  357,  358
  359,  360,  361,  362,  363,  364,  365,  366,  367,  368,  369,  370,  371,  372,  373,  374
  375,  376,  377,  378,  379,  380,  381,  382,  383,  384,  385,  386,  387,  388,  389,  390
  391,  392,  393,  394,  395,  396,  397,  398,  399,  400,  401,  402,  403,  404,  405,  406
  407,  408,  409,  410,  411,  412,  413,  414,  415,  416,  417,  418,  419,  420,  421,  422
  423,  424,  425,  426,  427,  428,  429,  430,  431,  432,  433,  434,  435,  436,  437,  438
  439,  440,  441,  442,  443,  444,  445,  446,  447,  448,  449,  450,  451,  452,  453,  454
  455,  456,  457,  458,  459,  460,  461,  462,  463,  464,  465,  466,  467,  468,  469,  470
** ... 264 like lines cut
*Elset, elset=Set-10, instance=elastic-hold-plate-1, generate
    1,  4378,     1
*Nset, nset=Set-11, instance=elastic-hold-plate-1, generate
    1,  9060,     1
*Elset, elset=Set-11, instance=elastic-hold-plate-1, generate
    1,  4378,     1
*Nset, nset=Set-12, instance=elastic-hold-plate-1, generate
    1,  9060,     1
*Elset, elset=Set-12, instance=elastic-hold-plate-1, generate
    1,  4378,     1
*Elset, elset=_Surf-1_S5, internal, instance=elastic-hold-plate-1, generate
 210,  546,   21
*Elset, elset=_Surf-1_S6, internal, instance=elastic-hold-plate-1, generate
   1,  169,   21
*Surface, type=ELEMENT, name=Surf-1
_Surf-1_S5, S5
_Surf-1_S6, S6
*End Assembly
** 
** MATERIALS
** 
*Material, name=Material-1
*Density
1.,
*Depvar
      8,
*User Material, constants=4, type=THERMAL
 8.31446,    300.,   2e-06, 3.8e-11
*User Material, constants=2, type=MECHANICAL
 2e+11, 0.3
** 
** PREDEFINED FIELDS
** 
** Name: Cbar_L   Type: Temperature
*Initial Conditions, type=TEMPERATURE
Set-1, 20.
** ----------------------------------------------------------------
** 
** STEP: Step-1
** 
*Step, name=Step-1, nlgeom=YES, inc=10000000
*Coupled Temperature-displacement, creep=none, deltmx=10.
500., 1e+10, 100., 1000.
** 
** BOUNDARY CONDITIONS
** 
** Name: Xsymm Type: Symmetry/Antisymmetry/Encastre
*Boundary
Set-6, XSYMM
** Name: Ysymm Type: Symmetry/Antisymmetry/Encastre
*Boundary
Set-5, YSYMM
** Name: Zsymm Type: Symmetry/Antisymmetry/Encastre
*Boundary
Set-11, ZSYMM
** 
** LOADS
** 
** Name: Load-1   Type: Pressure
*Dsload
Surf-1, P, -1e+08
** 
** OUTPUT REQUESTS
** 
*Restart, write, frequency=0
** 
** FIELD OUTPUT: F-Output-1
** 
*Output, field
*Node Output
COORD, NT
*Element Output, directions=YES
COORD, LODE, S, SDV, TRIAX
** 
** HISTORY OUTPUT: H-Output-1
** 
*Output, history, variable=PRESELECT
*End Step
