1

   Abaqus 2023.HF4                                  Date 07-Jul-2024   Time 19:12:07
   For use by AALTO UNIVERSITY under license from Dassault Systemes or its subsidiary.



                         The Abaqus Software is a product of:

                           Dassault Systemes SIMULIA Corp.
                           1301 Atwood Avenue, Suite 101W
                              Johnston, RI 02919, USA
 


                   The Abaqus Software is available only under license
                   from Dassault Systemes or its subsidiary and may be
                   used or reproduced only in accordance with the terms
                   of such license.
 
                          On machine L23-0203 
                          you are authorized to run
                          Abaqus/Standard until 20-Feb-2025

                          Your site id is: 200000000014764 


 
                    For assistance or any other information you may
                    obtain contact information for your local office
                    from the world wide web at:

                      https://www.3ds.com/products-services/simulia/services-support/

 
                * * * * * * * * * * * * * * * * * * * * * * * * * * * * * * 
                *                                                         * 
                *                   *****************                     * 
                *                   *  N O T I C E  *                     * 
                *                   *****************                     * 
                *                                                         * 
                *                                                         * 
                *                     Abaqus 2023.HF4                     * 
                *                                                         * 
                *       BUILD ID: 2023_07_21-20.45.57 RELr425 183702      * 
                *                                                         * 
                *                                                         * 
                *  Please make sure you are using                         * 
                *  release Abaqus 2023.HF4 manuals                        * 
                *  plus the notes accompanying this release.              * 
                *                                                         * 
                *                                                         * 
                *                                                         * 
                *                                                         * 
                *                                                         * 
                *   This program may not be used for commercial purposes  * 
                *           without payment of a commercial fee.          * 
                *                                                         * 
                * * * * * * * * * * * * * * * * * * * * * * * * * * * * * * 


 



     PROCESSING PART, INSTANCE, AND ASSEMBLY INFORMATION
   *******************************************************


     END PROCESSING PART, INSTANCE, AND ASSEMBLY INFORMATION
   ***********************************************************




     OPTIONS BEING PROCESSED
   ***************************


  *Heading
  *Element, type=C3D8T
  *Elset, elset=ASSEMBLY_ELASTIC-HOLD-PLATE-1_SET-1
  *Elset, elset=ASSEMBLY_SET-1
  *Elset, elset=ASSEMBLY_SET-10
  *Elset, elset=ASSEMBLY_SET-11
  *Elset, elset=ASSEMBLY_SET-12
  *Elset, elset=ASSEMBLY_SET-2
  *Elset, elset=ASSEMBLY_SET-3
  *Elset, elset=ASSEMBLY_SET-4
  *Elset, elset=ASSEMBLY_SET-5
  *Elset, elset=ASSEMBLY_SET-6
  *Elset, elset=ASSEMBLY_SET-7
  *Elset, elset=ASSEMBLY_SET-8
  *Elset, elset=ASSEMBLY_SET-9
  *Elset, elset=ASSEMBLY__SURF-1_S5
  *Elset, elset=ASSEMBLY__SURF-1_S6
  *coupledtemperature-displacement, creep=NONE, deltmx=10
  *material, name=MATERIAL-1
  *density
  *depvar
  *usermaterial, constants=4, type=THERMAL
  *usermaterial, constants=2, type=MECHANICAL
  *initialconditions, type=TEMPERATURE
  *solidsection, elset=ASSEMBLY_ELASTIC-HOLD-PLATE-1_SET-1, material=MATERIAL-1
  *solidsection, elset=ASSEMBLY_ELASTIC-HOLD-PLATE-1_SET-1, material=MATERIAL-1

 ***WARNING: FOR TWO-DIMENSIONAL MODELS, IF A NON-UNITY THICKNESS IS SPECIFIED 
             FOR TWO-DIMENSIONAL SOLID ELEMENTS AND THESE ELEMENTS ARE INVOLVED 
             IN AN INTERACTION SUCH AS CONTACT, THE SAME THICKNESS SHOULD BE 
             SPECIFIED FOR THE OUT-OF-PLANE THICKNESS OF THE CORRESPONDING 
             SURFACE UNDER *SURFACE INTERACTION.
  *surface, type=ELEMENT, name=ASSEMBLY_SURF-1
  *surface, type=ELEMENT, name=ASSEMBLY_SURF-1
  *initialconditions, type=TEMPERATURE
  *boundary
  *boundary
  *boundary
  *boundary
  *boundary
  *boundary
  *surface, type=ELEMENT, name=ASSEMBLY_SURF-1
  *output, field
  *output, history, variable=PRESELECT
  *elementoutput, directions=YES
  *initialconditions, type=TEMPERATURE
  *output, field
  *output, history, variable=PRESELECT
  *elementoutput, directions=YES
  *initialconditions, type=TEMPERATURE
  *output, field
  *output, history, variable=PRESELECT
  *elementoutput, directions=YES
  
                               E L E M E N T   Q U A L I T Y  C H E C K S        
  
  
 ***NOTES: DISTORTED ISOPARAMETRIC ELEMENTS: ANGLE BETWEEN ISOPARAMETRIC LINES 
           IS LESS THAN 45 DEGREES OR GREATER THAN 135 DEGREES.
  
           TETRAHEDRAL QUALITY MEASURE: VOLUME OF TETRAHEDRON DIVIDED BY THE 
           VOLUME OF EQUILATERAL TETRAHEDRON WITH SAME CIRCUMSPHERE RADIUS; 
           0 FOR DEGENERATE TETRAHEDRON AND 1 FOR EQUILATERIAL TETRAHEDRON. IT 
           IS RECOMMENDED THAT THE TETRAHEDRAL QUALITY MEASURE BE GREATER THAN 
           0.02, THE MIN INTERIOR (DIHEDRAL) ANGLE BE GREATER THAN 10 DEGREES, 
           AND THE MAX INTERIOR (DIHEDRAL) ANGLE BE LESS THAN 160 DEGREES. 
  
           MODIFIED TETRAHEDRAL QUALITY MEASURE: ANGLES BETWEEN THE TWO LINE 
           SEGMENTS ON EACH EDGE; THE EDGES OF MODIFIED TETRAHEDRAL SHOULD BE 
           AS STRAIGHT AS POSSIBLE. IT IS RECOMMENDED THAT THE ANGLE BETWEEN 
           THE TWO LINE SEGMENTS ON EACH EDGE IS BETWEEN 160 AND 180 DEGREES. 
  
           TRIANGULAR QUALITY MEASURE: AREA OF TRIANGLE DIVIDED BY THE AREA OF 
           EQUILATERAL TRIANGLE WITH SAME CIRCUMCIRCLE RADIUS; 0 FOR DEGENERATE 
           TRIANGLE AND 1 FOR EQUILATERAL TRIANGLE. IT IS RECOMMENDED THAT THE
           TRIANGULAR QUALITY MEASURE BE GREATER THAN 0.01, THE MIN INTERIOR 
           ANGLE BE GREATER THAN 10 DEGREES, AND THE MAX INTERIOR ANGLE BE LESS 
           THAN 160 DEGREES. 
  
           NODAL ADJUSTMENTS ARISING FROM CONTACT INTERACTIONS AND/OR TIE 
           CONSTRAINTS CAN CAUSE SEVERE ELEMENT DISTORTION. IT MAY BE NECESSARY 
           TO REMESH IN ORDER TO REDUCE THE AMOUNT OF ADJUSTMENT. 

 ***WARNING: 5 elements are distorted. Either the isoparametric angles are out 
             of the suggested limits or the triangular or tetrahedral quality 
             measure is bad. The elements have been identified in element set 
             WarnElemDistorted.

 ***WARNING: The aspect ratio for 4378 elements exceeds 100 to 1. The elements 
             have been identified in element set WarnElemAspectRatio.
  
 --------------------------------------------------------------------------------
 Distorted isoparametric elements
  
            Element              Min/max angle   Adjusted nodes 
 ------------------------------ ---------------- -------------- 
       ELASTIC-HOLD-PLATE-1.749          42.9988       NO       
      ELASTIC-HOLD-PLATE-1.1072          43.1325       NO       
      ELASTIC-HOLD-PLATE-1.1079          32.2205       NO       
      ELASTIC-HOLD-PLATE-1.2004          21.4707       NO       
      ELASTIC-HOLD-PLATE-1.4299          38.0601       NO       
  
 --------------------------------------------------------------------------------
 Elements with large aspect ratio
  
            Element             Adjusted nodes 
 ------------------------------ -------------- 
         ELASTIC-HOLD-PLATE-1.1       NO       
         ELASTIC-HOLD-PLATE-1.2       NO       
         ELASTIC-HOLD-PLATE-1.3       NO       
         ELASTIC-HOLD-PLATE-1.4       NO       
         ELASTIC-HOLD-PLATE-1.5       NO       
         ELASTIC-HOLD-PLATE-1.6       NO       
         ELASTIC-HOLD-PLATE-1.7       NO       
         ELASTIC-HOLD-PLATE-1.8       NO       
         ELASTIC-HOLD-PLATE-1.9       NO       
        ELASTIC-HOLD-PLATE-1.10       NO       
        ELASTIC-HOLD-PLATE-1.11       NO       
        ELASTIC-HOLD-PLATE-1.12       NO       
        ELASTIC-HOLD-PLATE-1.13       NO       
        ELASTIC-HOLD-PLATE-1.14       NO       
        ELASTIC-HOLD-PLATE-1.15       NO       
        ELASTIC-HOLD-PLATE-1.16       NO       
        ELASTIC-HOLD-PLATE-1.17       NO       
        ELASTIC-HOLD-PLATE-1.18       NO       
        ELASTIC-HOLD-PLATE-1.19       NO       
        ELASTIC-HOLD-PLATE-1.20       NO       
        ELASTIC-HOLD-PLATE-1.21       NO       
        ELASTIC-HOLD-PLATE-1.22       NO       
        ELASTIC-HOLD-PLATE-1.23       NO       
        ELASTIC-HOLD-PLATE-1.24       NO       
        ELASTIC-HOLD-PLATE-1.25       NO       
        ELASTIC-HOLD-PLATE-1.26       NO       
        ELASTIC-HOLD-PLATE-1.27       NO       
        ELASTIC-HOLD-PLATE-1.28       NO       
        ELASTIC-HOLD-PLATE-1.29       NO       
        ELASTIC-HOLD-PLATE-1.30       NO       
        ELASTIC-HOLD-PLATE-1.31       NO       
        ELASTIC-HOLD-PLATE-1.32       NO       
        ELASTIC-HOLD-PLATE-1.33       NO       
        ELASTIC-HOLD-PLATE-1.34       NO       
        ELASTIC-HOLD-PLATE-1.35       NO       
        ELASTIC-HOLD-PLATE-1.36       NO       
        ELASTIC-HOLD-PLATE-1.37       NO       
        ELASTIC-HOLD-PLATE-1.38       NO       
        ELASTIC-HOLD-PLATE-1.39       NO       
        ELASTIC-HOLD-PLATE-1.40       NO       
        ELASTIC-HOLD-PLATE-1.41       NO       
        ELASTIC-HOLD-PLATE-1.42       NO       
        ELASTIC-HOLD-PLATE-1.43       NO       
        ELASTIC-HOLD-PLATE-1.44       NO       
        ELASTIC-HOLD-PLATE-1.45       NO       
        ELASTIC-HOLD-PLATE-1.46       NO       
        ELASTIC-HOLD-PLATE-1.47       NO       
        ELASTIC-HOLD-PLATE-1.48       NO       
        ELASTIC-HOLD-PLATE-1.49       NO       
        ELASTIC-HOLD-PLATE-1.50       NO       
        ELASTIC-HOLD-PLATE-1.51       NO       
        ELASTIC-HOLD-PLATE-1.52       NO       
        ELASTIC-HOLD-PLATE-1.53       NO       
        ELASTIC-HOLD-PLATE-1.54       NO       
        ELASTIC-HOLD-PLATE-1.55       NO       
        ELASTIC-HOLD-PLATE-1.56       NO       
        ELASTIC-HOLD-PLATE-1.57       NO       
        ELASTIC-HOLD-PLATE-1.58       NO       
        ELASTIC-HOLD-PLATE-1.59       NO       
        ELASTIC-HOLD-PLATE-1.60       NO       
        ELASTIC-HOLD-PLATE-1.61       NO       
        ELASTIC-HOLD-PLATE-1.62       NO       
        ELASTIC-HOLD-PLATE-1.63       NO       
        ELASTIC-HOLD-PLATE-1.64       NO       
        ELASTIC-HOLD-PLATE-1.65       NO       
        ELASTIC-HOLD-PLATE-1.66       NO       
        ELASTIC-HOLD-PLATE-1.67       NO       
        ELASTIC-HOLD-PLATE-1.68       NO       
        ELASTIC-HOLD-PLATE-1.69       NO       
        ELASTIC-HOLD-PLATE-1.70       NO       
        ELASTIC-HOLD-PLATE-1.71       NO       
        ELASTIC-HOLD-PLATE-1.72       NO       
        ELASTIC-HOLD-PLATE-1.73       NO       
        ELASTIC-HOLD-PLATE-1.74       NO       
        ELASTIC-HOLD-PLATE-1.75       NO       
        ELASTIC-HOLD-PLATE-1.76       NO       
        ELASTIC-HOLD-PLATE-1.77       NO       
        ELASTIC-HOLD-PLATE-1.78       NO       
        ELASTIC-HOLD-PLATE-1.79       NO       
        ELASTIC-HOLD-PLATE-1.80       NO       
        ELASTIC-HOLD-PLATE-1.81       NO       
        ELASTIC-HOLD-PLATE-1.82       NO       
        ELASTIC-HOLD-PLATE-1.83       NO       
        ELASTIC-HOLD-PLATE-1.84       NO       
        ELASTIC-HOLD-PLATE-1.85       NO       
        ELASTIC-HOLD-PLATE-1.86       NO       
        ELASTIC-HOLD-PLATE-1.87       NO       
        ELASTIC-HOLD-PLATE-1.88       NO       
        ELASTIC-HOLD-PLATE-1.89       NO       
        ELASTIC-HOLD-PLATE-1.90       NO       
        ELASTIC-HOLD-PLATE-1.91       NO       
        ELASTIC-HOLD-PLATE-1.92       NO       
        ELASTIC-HOLD-PLATE-1.93       NO       
        ELASTIC-HOLD-PLATE-1.94       NO       
        ELASTIC-HOLD-PLATE-1.95       NO       
        ELASTIC-HOLD-PLATE-1.96       NO       
        ELASTIC-HOLD-PLATE-1.97       NO       
        ELASTIC-HOLD-PLATE-1.98       NO       
        ELASTIC-HOLD-PLATE-1.99       NO       
       ELASTIC-HOLD-PLATE-1.100       NO       
       ELASTIC-HOLD-PLATE-1.101       NO       
       ELASTIC-HOLD-PLATE-1.102       NO       
       ELASTIC-HOLD-PLATE-1.103       NO       
       ELASTIC-HOLD-PLATE-1.104       NO       
       ELASTIC-HOLD-PLATE-1.105       NO       
       ELASTIC-HOLD-PLATE-1.106       NO       
       ELASTIC-HOLD-PLATE-1.107       NO       
       ELASTIC-HOLD-PLATE-1.108       NO       
       ELASTIC-HOLD-PLATE-1.109       NO       
       ELASTIC-HOLD-PLATE-1.110       NO       
       ELASTIC-HOLD-PLATE-1.111       NO       
       ELASTIC-HOLD-PLATE-1.112       NO       
       ELASTIC-HOLD-PLATE-1.113       NO       
       ELASTIC-HOLD-PLATE-1.114       NO       
       ELASTIC-HOLD-PLATE-1.115       NO       
       ELASTIC-HOLD-PLATE-1.116       NO       
       ELASTIC-HOLD-PLATE-1.117       NO       
       ELASTIC-HOLD-PLATE-1.118       NO       
       ELASTIC-HOLD-PLATE-1.119       NO       
       ELASTIC-HOLD-PLATE-1.120       NO       
       ELASTIC-HOLD-PLATE-1.121       NO       
       ELASTIC-HOLD-PLATE-1.122       NO       
       ELASTIC-HOLD-PLATE-1.123       NO       
       ELASTIC-HOLD-PLATE-1.124       NO       
       ELASTIC-HOLD-PLATE-1.125       NO       
       ELASTIC-HOLD-PLATE-1.126       NO       
       ELASTIC-HOLD-PLATE-1.127       NO       
       ELASTIC-HOLD-PLATE-1.128       NO       
       ELASTIC-HOLD-PLATE-1.129       NO       
       ELASTIC-HOLD-PLATE-1.130       NO       
       ELASTIC-HOLD-PLATE-1.131       NO       
       ELASTIC-HOLD-PLATE-1.132       NO       
       ELASTIC-HOLD-PLATE-1.133       NO       
       ELASTIC-HOLD-PLATE-1.134       NO       
       ELASTIC-HOLD-PLATE-1.135       NO       
       ELASTIC-HOLD-PLATE-1.136       NO       
       ELASTIC-HOLD-PLATE-1.137       NO       
       ELASTIC-HOLD-PLATE-1.138       NO       
       ELASTIC-HOLD-PLATE-1.139       NO       
       ELASTIC-HOLD-PLATE-1.140       NO       
       ELASTIC-HOLD-PLATE-1.141       NO       
       ELASTIC-HOLD-PLATE-1.142       NO       
       ELASTIC-HOLD-PLATE-1.143       NO       
       ELASTIC-HOLD-PLATE-1.144       NO       
       ELASTIC-HOLD-PLATE-1.145       NO       
       ELASTIC-HOLD-PLATE-1.146       NO       
       ELASTIC-HOLD-PLATE-1.147       NO       
       ELASTIC-HOLD-PLATE-1.148       NO       
       ELASTIC-HOLD-PLATE-1.149       NO       
       ELASTIC-HOLD-PLATE-1.150       NO       
       ELASTIC-HOLD-PLATE-1.151       NO       
       ELASTIC-HOLD-PLATE-1.152       NO       
       ELASTIC-HOLD-PLATE-1.153       NO       
       ELASTIC-HOLD-PLATE-1.154       NO       
       ELASTIC-HOLD-PLATE-1.155       NO       
       ELASTIC-HOLD-PLATE-1.156       NO       
       ELASTIC-HOLD-PLATE-1.157       NO       
       ELASTIC-HOLD-PLATE-1.158       NO       
       ELASTIC-HOLD-PLATE-1.159       NO       
       ELASTIC-HOLD-PLATE-1.160       NO       
       ELASTIC-HOLD-PLATE-1.161       NO       
       ELASTIC-HOLD-PLATE-1.162       NO       
       ELASTIC-HOLD-PLATE-1.163       NO       
       ELASTIC-HOLD-PLATE-1.164       NO       
       ELASTIC-HOLD-PLATE-1.165       NO       
       ELASTIC-HOLD-PLATE-1.166       NO       
       ELASTIC-HOLD-PLATE-1.167       NO       
       ELASTIC-HOLD-PLATE-1.168       NO       
       ELASTIC-HOLD-PLATE-1.169       NO       
       ELASTIC-HOLD-PLATE-1.170       NO       
       ELASTIC-HOLD-PLATE-1.171       NO       
       ELASTIC-HOLD-PLATE-1.172       NO       
       ELASTIC-HOLD-PLATE-1.173       NO       
       ELASTIC-HOLD-PLATE-1.174       NO       
       ELASTIC-HOLD-PLATE-1.175       NO       
       ELASTIC-HOLD-PLATE-1.176       NO       
       ELASTIC-HOLD-PLATE-1.177       NO       
       ELASTIC-HOLD-PLATE-1.178       NO       
       ELASTIC-HOLD-PLATE-1.179       NO       
       ELASTIC-HOLD-PLATE-1.180       NO       
       ELASTIC-HOLD-PLATE-1.181       NO       
       ELASTIC-HOLD-PLATE-1.182       NO       
       ELASTIC-HOLD-PLATE-1.183       NO       
       ELASTIC-HOLD-PLATE-1.184       NO       
       ELASTIC-HOLD-PLATE-1.185       NO       
       ELASTIC-HOLD-PLATE-1.186       NO       
       ELASTIC-HOLD-PLATE-1.187       NO       
       ELASTIC-HOLD-PLATE-1.188       NO       
       ELASTIC-HOLD-PLATE-1.189       NO       
       ELASTIC-HOLD-PLATE-1.190       NO       
       ELASTIC-HOLD-PLATE-1.191       NO       
       ELASTIC-HOLD-PLATE-1.192       NO       
       ELASTIC-HOLD-PLATE-1.193       NO       
       ELASTIC-HOLD-PLATE-1.194       NO       
       ELASTIC-HOLD-PLATE-1.195       NO       
       ELASTIC-HOLD-PLATE-1.196       NO       
       ELASTIC-HOLD-PLATE-1.197       NO       
       ELASTIC-HOLD-PLATE-1.198       NO       
       ELASTIC-HOLD-PLATE-1.199       NO       
       ELASTIC-HOLD-PLATE-1.200       NO       
       ELASTIC-HOLD-PLATE-1.201       NO       
       ELASTIC-HOLD-PLATE-1.202       NO       
       ELASTIC-HOLD-PLATE-1.203       NO       
       ELASTIC-HOLD-PLATE-1.204       NO       
       ELASTIC-HOLD-PLATE-1.205       NO       
       ELASTIC-HOLD-PLATE-1.206       NO       
       ELASTIC-HOLD-PLATE-1.207       NO       
       ELASTIC-HOLD-PLATE-1.208       NO       
       ELASTIC-HOLD-PLATE-1.209       NO       
       ELASTIC-HOLD-PLATE-1.210       NO       
       ELASTIC-HOLD-PLATE-1.211       NO       
       ELASTIC-HOLD-PLATE-1.212       NO       
       ELASTIC-HOLD-PLATE-1.213       NO       
       ELASTIC-HOLD-PLATE-1.214       NO       
       ELASTIC-HOLD-PLATE-1.215       NO       
       ELASTIC-HOLD-PLATE-1.216       NO       
       ELASTIC-HOLD-PLATE-1.217       NO       
       ELASTIC-HOLD-PLATE-1.218       NO       
       ELASTIC-HOLD-PLATE-1.219       NO       
       ELASTIC-HOLD-PLATE-1.220       NO       
       ELASTIC-HOLD-PLATE-1.221       NO       
       ELASTIC-HOLD-PLATE-1.222       NO       
       ELASTIC-HOLD-PLATE-1.223       NO       
       ELASTIC-HOLD-PLATE-1.224       NO       
       ELASTIC-HOLD-PLATE-1.225       NO       
       ELASTIC-HOLD-PLATE-1.226       NO       
       ELASTIC-HOLD-PLATE-1.227       NO       
       ELASTIC-HOLD-PLATE-1.228       NO       
       ELASTIC-HOLD-PLATE-1.229       NO       
       ELASTIC-HOLD-PLATE-1.230       NO       
       ELASTIC-HOLD-PLATE-1.231       NO       
       ELASTIC-HOLD-PLATE-1.232       NO       
       ELASTIC-HOLD-PLATE-1.233       NO       
       ELASTIC-HOLD-PLATE-1.234       NO       
       ELASTIC-HOLD-PLATE-1.235       NO       
       ELASTIC-HOLD-PLATE-1.236       NO       
       ELASTIC-HOLD-PLATE-1.237       NO       
       ELASTIC-HOLD-PLATE-1.238       NO       
       ELASTIC-HOLD-PLATE-1.239       NO       
       ELASTIC-HOLD-PLATE-1.240       NO       
       ELASTIC-HOLD-PLATE-1.241       NO       
       ELASTIC-HOLD-PLATE-1.242       NO       
       ELASTIC-HOLD-PLATE-1.243       NO       
       ELASTIC-HOLD-PLATE-1.244       NO       
       ELASTIC-HOLD-PLATE-1.245       NO       
       ELASTIC-HOLD-PLATE-1.246       NO       
       ELASTIC-HOLD-PLATE-1.247       NO       
       ELASTIC-HOLD-PLATE-1.248       NO       
       ELASTIC-HOLD-PLATE-1.249       NO       
       ELASTIC-HOLD-PLATE-1.250       NO       
       ELASTIC-HOLD-PLATE-1.251       NO       
       ELASTIC-HOLD-PLATE-1.252       NO       
       ELASTIC-HOLD-PLATE-1.253       NO       
       ELASTIC-HOLD-PLATE-1.254       NO       
       ELASTIC-HOLD-PLATE-1.255       NO       
       ELASTIC-HOLD-PLATE-1.256       NO       
       ELASTIC-HOLD-PLATE-1.257       NO       
       ELASTIC-HOLD-PLATE-1.258       NO       
       ELASTIC-HOLD-PLATE-1.259       NO       
       ELASTIC-HOLD-PLATE-1.260       NO       
       ELASTIC-HOLD-PLATE-1.261       NO       
       ELASTIC-HOLD-PLATE-1.262       NO       
       ELASTIC-HOLD-PLATE-1.263       NO       
       ELASTIC-HOLD-PLATE-1.264       NO       
       ELASTIC-HOLD-PLATE-1.265       NO       
       ELASTIC-HOLD-PLATE-1.266       NO       
       ELASTIC-HOLD-PLATE-1.267       NO       
       ELASTIC-HOLD-PLATE-1.268       NO       
       ELASTIC-HOLD-PLATE-1.269       NO       
       ELASTIC-HOLD-PLATE-1.270       NO       
       ELASTIC-HOLD-PLATE-1.271       NO       
       ELASTIC-HOLD-PLATE-1.272       NO       
       ELASTIC-HOLD-PLATE-1.273       NO       
       ELASTIC-HOLD-PLATE-1.274       NO       
       ELASTIC-HOLD-PLATE-1.275       NO       
       ELASTIC-HOLD-PLATE-1.276       NO       
       ELASTIC-HOLD-PLATE-1.277       NO       
       ELASTIC-HOLD-PLATE-1.278       NO       
       ELASTIC-HOLD-PLATE-1.279       NO       
       ELASTIC-HOLD-PLATE-1.280       NO       
       ELASTIC-HOLD-PLATE-1.281       NO       
       ELASTIC-HOLD-PLATE-1.282       NO       
       ELASTIC-HOLD-PLATE-1.283       NO       
       ELASTIC-HOLD-PLATE-1.284       NO       
       ELASTIC-HOLD-PLATE-1.285       NO       
       ELASTIC-HOLD-PLATE-1.286       NO       
       ELASTIC-HOLD-PLATE-1.287       NO       
       ELASTIC-HOLD-PLATE-1.288       NO       
       ELASTIC-HOLD-PLATE-1.289       NO       
       ELASTIC-HOLD-PLATE-1.290       NO       
       ELASTIC-HOLD-PLATE-1.291       NO       
       ELASTIC-HOLD-PLATE-1.292       NO       
       ELASTIC-HOLD-PLATE-1.293       NO       
       ELASTIC-HOLD-PLATE-1.294       NO       
       ELASTIC-HOLD-PLATE-1.295       NO       
       ELASTIC-HOLD-PLATE-1.296       NO       
       ELASTIC-HOLD-PLATE-1.297       NO       
       ELASTIC-HOLD-PLATE-1.298       NO       
       ELASTIC-HOLD-PLATE-1.299       NO       
       ELASTIC-HOLD-PLATE-1.300       NO       
       ELASTIC-HOLD-PLATE-1.301       NO       
       ELASTIC-HOLD-PLATE-1.302       NO       
       ELASTIC-HOLD-PLATE-1.303       NO       
       ELASTIC-HOLD-PLATE-1.304       NO       
       ELASTIC-HOLD-PLATE-1.305       NO       
       ELASTIC-HOLD-PLATE-1.306       NO       
       ELASTIC-HOLD-PLATE-1.307       NO       
       ELASTIC-HOLD-PLATE-1.308       NO       
       ELASTIC-HOLD-PLATE-1.309       NO       
       ELASTIC-HOLD-PLATE-1.310       NO       
       ELASTIC-HOLD-PLATE-1.311       NO       
       ELASTIC-HOLD-PLATE-1.312       NO       
       ELASTIC-HOLD-PLATE-1.313       NO       
       ELASTIC-HOLD-PLATE-1.314       NO       
       ELASTIC-HOLD-PLATE-1.315       NO       
       ELASTIC-HOLD-PLATE-1.316       NO       
       ELASTIC-HOLD-PLATE-1.317       NO       
       ELASTIC-HOLD-PLATE-1.318       NO       
       ELASTIC-HOLD-PLATE-1.319       NO       
       ELASTIC-HOLD-PLATE-1.320       NO       
       ELASTIC-HOLD-PLATE-1.321       NO       
       ELASTIC-HOLD-PLATE-1.322       NO       
       ELASTIC-HOLD-PLATE-1.323       NO       
       ELASTIC-HOLD-PLATE-1.324       NO       
       ELASTIC-HOLD-PLATE-1.325       NO       
       ELASTIC-HOLD-PLATE-1.326       NO       
       ELASTIC-HOLD-PLATE-1.327       NO       
       ELASTIC-HOLD-PLATE-1.328       NO       
       ELASTIC-HOLD-PLATE-1.329       NO       
       ELASTIC-HOLD-PLATE-1.330       NO       
       ELASTIC-HOLD-PLATE-1.331       NO       
       ELASTIC-HOLD-PLATE-1.332       NO       
       ELASTIC-HOLD-PLATE-1.333       NO       
       ELASTIC-HOLD-PLATE-1.334       NO       
       ELASTIC-HOLD-PLATE-1.335       NO       
       ELASTIC-HOLD-PLATE-1.336       NO       
       ELASTIC-HOLD-PLATE-1.337       NO       
       ELASTIC-HOLD-PLATE-1.338       NO       
       ELASTIC-HOLD-PLATE-1.339       NO       
       ELASTIC-HOLD-PLATE-1.340       NO       
       ELASTIC-HOLD-PLATE-1.341       NO       
       ELASTIC-HOLD-PLATE-1.342       NO       
       ELASTIC-HOLD-PLATE-1.343       NO       
       ELASTIC-HOLD-PLATE-1.344       NO       
       ELASTIC-HOLD-PLATE-1.345       NO       
       ELASTIC-HOLD-PLATE-1.346       NO       
       ELASTIC-HOLD-PLATE-1.347       NO       
       ELASTIC-HOLD-PLATE-1.348       NO       
       ELASTIC-HOLD-PLATE-1.349       NO       
       ELASTIC-HOLD-PLATE-1.350       NO       
       ELASTIC-HOLD-PLATE-1.351       NO       
       ELASTIC-HOLD-PLATE-1.352       NO       
       ELASTIC-HOLD-PLATE-1.353       NO       
       ELASTIC-HOLD-PLATE-1.354       NO       
       ELASTIC-HOLD-PLATE-1.355       NO       
       ELASTIC-HOLD-PLATE-1.356       NO       
       ELASTIC-HOLD-PLATE-1.357       NO       
       ELASTIC-HOLD-PLATE-1.358       NO       
       ELASTIC-HOLD-PLATE-1.359       NO       
       ELASTIC-HOLD-PLATE-1.360       NO       
       ELASTIC-HOLD-PLATE-1.361       NO       
       ELASTIC-HOLD-PLATE-1.362       NO       
       ELASTIC-HOLD-PLATE-1.363       NO       
       ELASTIC-HOLD-PLATE-1.364       NO       
       ELASTIC-HOLD-PLATE-1.365       NO       
       ELASTIC-HOLD-PLATE-1.366       NO       
       ELASTIC-HOLD-PLATE-1.367       NO       
       ELASTIC-HOLD-PLATE-1.368       NO       
       ELASTIC-HOLD-PLATE-1.369       NO       
       ELASTIC-HOLD-PLATE-1.370       NO       
       ELASTIC-HOLD-PLATE-1.371       NO       
       ELASTIC-HOLD-PLATE-1.372       NO       
       ELASTIC-HOLD-PLATE-1.373       NO       
       ELASTIC-HOLD-PLATE-1.374       NO       
       ELASTIC-HOLD-PLATE-1.375       NO       
       ELASTIC-HOLD-PLATE-1.376       NO       
       ELASTIC-HOLD-PLATE-1.377       NO       
       ELASTIC-HOLD-PLATE-1.378       NO       
       ELASTIC-HOLD-PLATE-1.379       NO       
       ELASTIC-HOLD-PLATE-1.380       NO       
       ELASTIC-HOLD-PLATE-1.381       NO       
       ELASTIC-HOLD-PLATE-1.382       NO       
       ELASTIC-HOLD-PLATE-1.383       NO       
       ELASTIC-HOLD-PLATE-1.384       NO       
       ELASTIC-HOLD-PLATE-1.385       NO       
       ELASTIC-HOLD-PLATE-1.386       NO       
       ELASTIC-HOLD-PLATE-1.387       NO       
       ELASTIC-HOLD-PLATE-1.388       NO       
       ELASTIC-HOLD-PLATE-1.389       NO       
       ELASTIC-HOLD-PLATE-1.390       NO       
       ELASTIC-HOLD-PLATE-1.391       NO       
       ELASTIC-HOLD-PLATE-1.392       NO       
       ELASTIC-HOLD-PLATE-1.393       NO       
       ELASTIC-HOLD-PLATE-1.394       NO       
       ELASTIC-HOLD-PLATE-1.395       NO       
       ELASTIC-HOLD-PLATE-1.396       NO       
       ELASTIC-HOLD-PLATE-1.397       NO       
       ELASTIC-HOLD-PLATE-1.398       NO       
       ELASTIC-HOLD-PLATE-1.399       NO       
       ELASTIC-HOLD-PLATE-1.400       NO       
       ELASTIC-HOLD-PLATE-1.401       NO       
       ELASTIC-HOLD-PLATE-1.402       NO       
       ELASTIC-HOLD-PLATE-1.403       NO       
       ELASTIC-HOLD-PLATE-1.404       NO       
       ELASTIC-HOLD-PLATE-1.405       NO       
       ELASTIC-HOLD-PLATE-1.406       NO       
       ELASTIC-HOLD-PLATE-1.407       NO       
       ELASTIC-HOLD-PLATE-1.408       NO       
       ELASTIC-HOLD-PLATE-1.409       NO       
       ELASTIC-HOLD-PLATE-1.410       NO       
       ELASTIC-HOLD-PLATE-1.411       NO       
       ELASTIC-HOLD-PLATE-1.412       NO       
       ELASTIC-HOLD-PLATE-1.413       NO       
       ELASTIC-HOLD-PLATE-1.414       NO       
       ELASTIC-HOLD-PLATE-1.415       NO       
       ELASTIC-HOLD-PLATE-1.416       NO       
       ELASTIC-HOLD-PLATE-1.417       NO       
       ELASTIC-HOLD-PLATE-1.418       NO       
       ELASTIC-HOLD-PLATE-1.419       NO       
       ELASTIC-HOLD-PLATE-1.420       NO       
       ELASTIC-HOLD-PLATE-1.421       NO       
       ELASTIC-HOLD-PLATE-1.422       NO       
       ELASTIC-HOLD-PLATE-1.423       NO       
       ELASTIC-HOLD-PLATE-1.424       NO       
       ELASTIC-HOLD-PLATE-1.425       NO       
       ELASTIC-HOLD-PLATE-1.426       NO       
       ELASTIC-HOLD-PLATE-1.427       NO       
       ELASTIC-HOLD-PLATE-1.428       NO       
       ELASTIC-HOLD-PLATE-1.429       NO       
       ELASTIC-HOLD-PLATE-1.430       NO       
       ELASTIC-HOLD-PLATE-1.431       NO       
       ELASTIC-HOLD-PLATE-1.432       NO       
       ELASTIC-HOLD-PLATE-1.433       NO       
       ELASTIC-HOLD-PLATE-1.434       NO       
       ELASTIC-HOLD-PLATE-1.435       NO       
       ELASTIC-HOLD-PLATE-1.436       NO       
       ELASTIC-HOLD-PLATE-1.437       NO       
       ELASTIC-HOLD-PLATE-1.438       NO       
       ELASTIC-HOLD-PLATE-1.439       NO       
       ELASTIC-HOLD-PLATE-1.440       NO       
       ELASTIC-HOLD-PLATE-1.441       NO       
       ELASTIC-HOLD-PLATE-1.442       NO       
       ELASTIC-HOLD-PLATE-1.443       NO       
       ELASTIC-HOLD-PLATE-1.444       NO       
       ELASTIC-HOLD-PLATE-1.445       NO       
       ELASTIC-HOLD-PLATE-1.446       NO       
       ELASTIC-HOLD-PLATE-1.447       NO       
       ELASTIC-HOLD-PLATE-1.448       NO       
       ELASTIC-HOLD-PLATE-1.449       NO       
       ELASTIC-HOLD-PLATE-1.450       NO       
       ELASTIC-HOLD-PLATE-1.451       NO       
       ELASTIC-HOLD-PLATE-1.452       NO       
       ELASTIC-HOLD-PLATE-1.453       NO       
       ELASTIC-HOLD-PLATE-1.454       NO       
       ELASTIC-HOLD-PLATE-1.455       NO       
       ELASTIC-HOLD-PLATE-1.456       NO       
       ELASTIC-HOLD-PLATE-1.457       NO       
       ELASTIC-HOLD-PLATE-1.458       NO       
       ELASTIC-HOLD-PLATE-1.459       NO       
       ELASTIC-HOLD-PLATE-1.460       NO       
       ELASTIC-HOLD-PLATE-1.461       NO       
       ELASTIC-HOLD-PLATE-1.462       NO       
       ELASTIC-HOLD-PLATE-1.463       NO       
       ELASTIC-HOLD-PLATE-1.464       NO       
       ELASTIC-HOLD-PLATE-1.465       NO       
       ELASTIC-HOLD-PLATE-1.466       NO       
       ELASTIC-HOLD-PLATE-1.467       NO       
       ELASTIC-HOLD-PLATE-1.468       NO       
       ELASTIC-HOLD-PLATE-1.469       NO       
       ELASTIC-HOLD-PLATE-1.470       NO       
       ELASTIC-HOLD-PLATE-1.471       NO       
       ELASTIC-HOLD-PLATE-1.472       NO       
       ELASTIC-HOLD-PLATE-1.473       NO       
       ELASTIC-HOLD-PLATE-1.474       NO       
       ELASTIC-HOLD-PLATE-1.475       NO       
       ELASTIC-HOLD-PLATE-1.476       NO       
       ELASTIC-HOLD-PLATE-1.477       NO       
       ELASTIC-HOLD-PLATE-1.478       NO       
       ELASTIC-HOLD-PLATE-1.479       NO       
       ELASTIC-HOLD-PLATE-1.480       NO       
       ELASTIC-HOLD-PLATE-1.481       NO       
       ELASTIC-HOLD-PLATE-1.482       NO       
       ELASTIC-HOLD-PLATE-1.483       NO       
       ELASTIC-HOLD-PLATE-1.484       NO       
       ELASTIC-HOLD-PLATE-1.485       NO       
       ELASTIC-HOLD-PLATE-1.486       NO       
       ELASTIC-HOLD-PLATE-1.487       NO       
       ELASTIC-HOLD-PLATE-1.488       NO       
       ELASTIC-HOLD-PLATE-1.489       NO       
       ELASTIC-HOLD-PLATE-1.490       NO       
       ELASTIC-HOLD-PLATE-1.491       NO       
       ELASTIC-HOLD-PLATE-1.492       NO       
       ELASTIC-HOLD-PLATE-1.493       NO       
       ELASTIC-HOLD-PLATE-1.494       NO       
       ELASTIC-HOLD-PLATE-1.495       NO       
       ELASTIC-HOLD-PLATE-1.496       NO       
       ELASTIC-HOLD-PLATE-1.497       NO       
       ELASTIC-HOLD-PLATE-1.498       NO       
       ELASTIC-HOLD-PLATE-1.499       NO       
       ELASTIC-HOLD-PLATE-1.500       NO       
       ELASTIC-HOLD-PLATE-1.501       NO       
       ELASTIC-HOLD-PLATE-1.502       NO       
       ELASTIC-HOLD-PLATE-1.503       NO       
       ELASTIC-HOLD-PLATE-1.504       NO       
       ELASTIC-HOLD-PLATE-1.505       NO       
       ELASTIC-HOLD-PLATE-1.506       NO       
       ELASTIC-HOLD-PLATE-1.507       NO       
       ELASTIC-HOLD-PLATE-1.508       NO       
       ELASTIC-HOLD-PLATE-1.509       NO       
       ELASTIC-HOLD-PLATE-1.510       NO       
       ELASTIC-HOLD-PLATE-1.511       NO       
       ELASTIC-HOLD-PLATE-1.512       NO       
       ELASTIC-HOLD-PLATE-1.513       NO       
       ELASTIC-HOLD-PLATE-1.514       NO       
       ELASTIC-HOLD-PLATE-1.515       NO       
       ELASTIC-HOLD-PLATE-1.516       NO       
       ELASTIC-HOLD-PLATE-1.517       NO       
       ELASTIC-HOLD-PLATE-1.518       NO       
       ELASTIC-HOLD-PLATE-1.519       NO       
       ELASTIC-HOLD-PLATE-1.520       NO       
       ELASTIC-HOLD-PLATE-1.521       NO       
       ELASTIC-HOLD-PLATE-1.522       NO       
       ELASTIC-HOLD-PLATE-1.523       NO       
       ELASTIC-HOLD-PLATE-1.524       NO       
       ELASTIC-HOLD-PLATE-1.525       NO       
       ELASTIC-HOLD-PLATE-1.526       NO       
       ELASTIC-HOLD-PLATE-1.527       NO       
       ELASTIC-HOLD-PLATE-1.528       NO       
       ELASTIC-HOLD-PLATE-1.529       NO       
       ELASTIC-HOLD-PLATE-1.530       NO       
       ELASTIC-HOLD-PLATE-1.531       NO       
       ELASTIC-HOLD-PLATE-1.532       NO       
       ELASTIC-HOLD-PLATE-1.533       NO       
       ELASTIC-HOLD-PLATE-1.534       NO       
       ELASTIC-HOLD-PLATE-1.535       NO       
       ELASTIC-HOLD-PLATE-1.536       NO       
       ELASTIC-HOLD-PLATE-1.537       NO       
       ELASTIC-HOLD-PLATE-1.538       NO       
       ELASTIC-HOLD-PLATE-1.539       NO       
       ELASTIC-HOLD-PLATE-1.540       NO       
       ELASTIC-HOLD-PLATE-1.541       NO       
       ELASTIC-HOLD-PLATE-1.542       NO       
       ELASTIC-HOLD-PLATE-1.543       NO       
       ELASTIC-HOLD-PLATE-1.544       NO       
       ELASTIC-HOLD-PLATE-1.545       NO       
       ELASTIC-HOLD-PLATE-1.546       NO       
       ELASTIC-HOLD-PLATE-1.547       NO       
       ELASTIC-HOLD-PLATE-1.548       NO       
       ELASTIC-HOLD-PLATE-1.549       NO       
       ELASTIC-HOLD-PLATE-1.550       NO       
       ELASTIC-HOLD-PLATE-1.551       NO       
       ELASTIC-HOLD-PLATE-1.552       NO       
       ELASTIC-HOLD-PLATE-1.553       NO       
       ELASTIC-HOLD-PLATE-1.554       NO       
       ELASTIC-HOLD-PLATE-1.555       NO       
       ELASTIC-HOLD-PLATE-1.556       NO       
       ELASTIC-HOLD-PLATE-1.557       NO       
       ELASTIC-HOLD-PLATE-1.558       NO       
       ELASTIC-HOLD-PLATE-1.559       NO       
       ELASTIC-HOLD-PLATE-1.560       NO       
       ELASTIC-HOLD-PLATE-1.561       NO       
       ELASTIC-HOLD-PLATE-1.562       NO       
       ELASTIC-HOLD-PLATE-1.563       NO       
       ELASTIC-HOLD-PLATE-1.564       NO       
       ELASTIC-HOLD-PLATE-1.565       NO       
       ELASTIC-HOLD-PLATE-1.566       NO       
       ELASTIC-HOLD-PLATE-1.567       NO       
       ELASTIC-HOLD-PLATE-1.568       NO       
       ELASTIC-HOLD-PLATE-1.569       NO       
       ELASTIC-HOLD-PLATE-1.570       NO       
       ELASTIC-HOLD-PLATE-1.571       NO       
       ELASTIC-HOLD-PLATE-1.572       NO       
       ELASTIC-HOLD-PLATE-1.573       NO       
       ELASTIC-HOLD-PLATE-1.574       NO       
       ELASTIC-HOLD-PLATE-1.575       NO       
       ELASTIC-HOLD-PLATE-1.576       NO       
       ELASTIC-HOLD-PLATE-1.577       NO       
       ELASTIC-HOLD-PLATE-1.578       NO       
       ELASTIC-HOLD-PLATE-1.579       NO       
       ELASTIC-HOLD-PLATE-1.580       NO       
       ELASTIC-HOLD-PLATE-1.581       NO       
       ELASTIC-HOLD-PLATE-1.582       NO       
       ELASTIC-HOLD-PLATE-1.583       NO       
       ELASTIC-HOLD-PLATE-1.584       NO       
       ELASTIC-HOLD-PLATE-1.585       NO       
       ELASTIC-HOLD-PLATE-1.586       NO       
       ELASTIC-HOLD-PLATE-1.587       NO       
       ELASTIC-HOLD-PLATE-1.588       NO       
       ELASTIC-HOLD-PLATE-1.589       NO       
       ELASTIC-HOLD-PLATE-1.590       NO       
       ELASTIC-HOLD-PLATE-1.591       NO       
       ELASTIC-HOLD-PLATE-1.592       NO       
       ELASTIC-HOLD-PLATE-1.593       NO       
       ELASTIC-HOLD-PLATE-1.594       NO       
       ELASTIC-HOLD-PLATE-1.595       NO       
       ELASTIC-HOLD-PLATE-1.596       NO       
       ELASTIC-HOLD-PLATE-1.597       NO       
       ELASTIC-HOLD-PLATE-1.598       NO       
       ELASTIC-HOLD-PLATE-1.599       NO       
       ELASTIC-HOLD-PLATE-1.600       NO       
       ELASTIC-HOLD-PLATE-1.601       NO       
       ELASTIC-HOLD-PLATE-1.602       NO       
       ELASTIC-HOLD-PLATE-1.603       NO       
       ELASTIC-HOLD-PLATE-1.604       NO       
       ELASTIC-HOLD-PLATE-1.605       NO       
       ELASTIC-HOLD-PLATE-1.606       NO       
       ELASTIC-HOLD-PLATE-1.607       NO       
       ELASTIC-HOLD-PLATE-1.608       NO       
       ELASTIC-HOLD-PLATE-1.609       NO       
       ELASTIC-HOLD-PLATE-1.610       NO       
       ELASTIC-HOLD-PLATE-1.611       NO       
       ELASTIC-HOLD-PLATE-1.612       NO       
       ELASTIC-HOLD-PLATE-1.613       NO       
       ELASTIC-HOLD-PLATE-1.614       NO       
       ELASTIC-HOLD-PLATE-1.615       NO       
       ELASTIC-HOLD-PLATE-1.616       NO       
       ELASTIC-HOLD-PLATE-1.617       NO       
       ELASTIC-HOLD-PLATE-1.618       NO       
       ELASTIC-HOLD-PLATE-1.619       NO       
       ELASTIC-HOLD-PLATE-1.620       NO       
       ELASTIC-HOLD-PLATE-1.621       NO       
       ELASTIC-HOLD-PLATE-1.622       NO       
       ELASTIC-HOLD-PLATE-1.623       NO       
       ELASTIC-HOLD-PLATE-1.624       NO       
       ELASTIC-HOLD-PLATE-1.625       NO       
       ELASTIC-HOLD-PLATE-1.626       NO       
       ELASTIC-HOLD-PLATE-1.627       NO       
       ELASTIC-HOLD-PLATE-1.628       NO       
       ELASTIC-HOLD-PLATE-1.629       NO       
       ELASTIC-HOLD-PLATE-1.630       NO       
       ELASTIC-HOLD-PLATE-1.631       NO       
       ELASTIC-HOLD-PLATE-1.632       NO       
       ELASTIC-HOLD-PLATE-1.633       NO       
       ELASTIC-HOLD-PLATE-1.634       NO       
       ELASTIC-HOLD-PLATE-1.635       NO       
       ELASTIC-HOLD-PLATE-1.636       NO       
       ELASTIC-HOLD-PLATE-1.637       NO       
       ELASTIC-HOLD-PLATE-1.638       NO       
       ELASTIC-HOLD-PLATE-1.639       NO       
       ELASTIC-HOLD-PLATE-1.640       NO       
       ELASTIC-HOLD-PLATE-1.641       NO       
       ELASTIC-HOLD-PLATE-1.642       NO       
       ELASTIC-HOLD-PLATE-1.643       NO       
       ELASTIC-HOLD-PLATE-1.644       NO       
       ELASTIC-HOLD-PLATE-1.645       NO       
       ELASTIC-HOLD-PLATE-1.646       NO       
       ELASTIC-HOLD-PLATE-1.647       NO       
       ELASTIC-HOLD-PLATE-1.648       NO       
       ELASTIC-HOLD-PLATE-1.649       NO       
       ELASTIC-HOLD-PLATE-1.650       NO       
       ELASTIC-HOLD-PLATE-1.651       NO       
       ELASTIC-HOLD-PLATE-1.652       NO       
       ELASTIC-HOLD-PLATE-1.653       NO       
       ELASTIC-HOLD-PLATE-1.654       NO       
       ELASTIC-HOLD-PLATE-1.655       NO       
       ELASTIC-HOLD-PLATE-1.656       NO       
       ELASTIC-HOLD-PLATE-1.657       NO       
       ELASTIC-HOLD-PLATE-1.658       NO       
       ELASTIC-HOLD-PLATE-1.659       NO       
       ELASTIC-HOLD-PLATE-1.660       NO       
       ELASTIC-HOLD-PLATE-1.661       NO       
       ELASTIC-HOLD-PLATE-1.662       NO       
       ELASTIC-HOLD-PLATE-1.663       NO       
       ELASTIC-HOLD-PLATE-1.664       NO       
       ELASTIC-HOLD-PLATE-1.665       NO       
       ELASTIC-HOLD-PLATE-1.666       NO       
       ELASTIC-HOLD-PLATE-1.667       NO       
       ELASTIC-HOLD-PLATE-1.668       NO       
       ELASTIC-HOLD-PLATE-1.669       NO       
       ELASTIC-HOLD-PLATE-1.670       NO       
       ELASTIC-HOLD-PLATE-1.671       NO       
       ELASTIC-HOLD-PLATE-1.672       NO       
       ELASTIC-HOLD-PLATE-1.673       NO       
       ELASTIC-HOLD-PLATE-1.674       NO       
       ELASTIC-HOLD-PLATE-1.675       NO       
       ELASTIC-HOLD-PLATE-1.676       NO       
       ELASTIC-HOLD-PLATE-1.677       NO       
       ELASTIC-HOLD-PLATE-1.678       NO       
       ELASTIC-HOLD-PLATE-1.679       NO       
       ELASTIC-HOLD-PLATE-1.680       NO       
       ELASTIC-HOLD-PLATE-1.681       NO       
       ELASTIC-HOLD-PLATE-1.682       NO       
       ELASTIC-HOLD-PLATE-1.683       NO       
       ELASTIC-HOLD-PLATE-1.684       NO       
       ELASTIC-HOLD-PLATE-1.685       NO       
       ELASTIC-HOLD-PLATE-1.686       NO       
       ELASTIC-HOLD-PLATE-1.687       NO       
       ELASTIC-HOLD-PLATE-1.688       NO       
       ELASTIC-HOLD-PLATE-1.689       NO       
       ELASTIC-HOLD-PLATE-1.690       NO       
       ELASTIC-HOLD-PLATE-1.691       NO       
       ELASTIC-HOLD-PLATE-1.692       NO       
       ELASTIC-HOLD-PLATE-1.693       NO       
       ELASTIC-HOLD-PLATE-1.694       NO       
       ELASTIC-HOLD-PLATE-1.695       NO       
       ELASTIC-HOLD-PLATE-1.696       NO       
       ELASTIC-HOLD-PLATE-1.697       NO       
       ELASTIC-HOLD-PLATE-1.698       NO       
       ELASTIC-HOLD-PLATE-1.699       NO       
       ELASTIC-HOLD-PLATE-1.700       NO       
       ELASTIC-HOLD-PLATE-1.701       NO       
       ELASTIC-HOLD-PLATE-1.702       NO       
       ELASTIC-HOLD-PLATE-1.703       NO       
       ELASTIC-HOLD-PLATE-1.704       NO       
       ELASTIC-HOLD-PLATE-1.705       NO       
       ELASTIC-HOLD-PLATE-1.706       NO       
       ELASTIC-HOLD-PLATE-1.707       NO       
       ELASTIC-HOLD-PLATE-1.708       NO       
       ELASTIC-HOLD-PLATE-1.709       NO       
       ELASTIC-HOLD-PLATE-1.710       NO       
       ELASTIC-HOLD-PLATE-1.711       NO       
       ELASTIC-HOLD-PLATE-1.712       NO       
       ELASTIC-HOLD-PLATE-1.713       NO       
       ELASTIC-HOLD-PLATE-1.714       NO       
       ELASTIC-HOLD-PLATE-1.715       NO       
       ELASTIC-HOLD-PLATE-1.716       NO       
       ELASTIC-HOLD-PLATE-1.717       NO       
       ELASTIC-HOLD-PLATE-1.718       NO       
       ELASTIC-HOLD-PLATE-1.719       NO       
       ELASTIC-HOLD-PLATE-1.720       NO       
       ELASTIC-HOLD-PLATE-1.721       NO       
       ELASTIC-HOLD-PLATE-1.722       NO       
       ELASTIC-HOLD-PLATE-1.723       NO       
       ELASTIC-HOLD-PLATE-1.724       NO       
       ELASTIC-HOLD-PLATE-1.725       NO       
       ELASTIC-HOLD-PLATE-1.726       NO       
       ELASTIC-HOLD-PLATE-1.727       NO       
       ELASTIC-HOLD-PLATE-1.728       NO       
       ELASTIC-HOLD-PLATE-1.729       NO       
       ELASTIC-HOLD-PLATE-1.730       NO       
       ELASTIC-HOLD-PLATE-1.731       NO       
       ELASTIC-HOLD-PLATE-1.732       NO       
       ELASTIC-HOLD-PLATE-1.733       NO       
       ELASTIC-HOLD-PLATE-1.734       NO       
       ELASTIC-HOLD-PLATE-1.735       NO       
       ELASTIC-HOLD-PLATE-1.736       NO       
       ELASTIC-HOLD-PLATE-1.737       NO       
       ELASTIC-HOLD-PLATE-1.738       NO       
       ELASTIC-HOLD-PLATE-1.739       NO       
       ELASTIC-HOLD-PLATE-1.740       NO       
       ELASTIC-HOLD-PLATE-1.741       NO       
       ELASTIC-HOLD-PLATE-1.742       NO       
       ELASTIC-HOLD-PLATE-1.743       NO       
       ELASTIC-HOLD-PLATE-1.744       NO       
       ELASTIC-HOLD-PLATE-1.745       NO       
       ELASTIC-HOLD-PLATE-1.746       NO       
       ELASTIC-HOLD-PLATE-1.747       NO       
       ELASTIC-HOLD-PLATE-1.748       NO       
       ELASTIC-HOLD-PLATE-1.749       NO       
       ELASTIC-HOLD-PLATE-1.750       NO       
       ELASTIC-HOLD-PLATE-1.751       NO       
       ELASTIC-HOLD-PLATE-1.752       NO       
       ELASTIC-HOLD-PLATE-1.753       NO       
       ELASTIC-HOLD-PLATE-1.754       NO       
       ELASTIC-HOLD-PLATE-1.755       NO       
       ELASTIC-HOLD-PLATE-1.756       NO       
       ELASTIC-HOLD-PLATE-1.757       NO       
       ELASTIC-HOLD-PLATE-1.758       NO       
       ELASTIC-HOLD-PLATE-1.759       NO       
       ELASTIC-HOLD-PLATE-1.760       NO       
       ELASTIC-HOLD-PLATE-1.761       NO       
       ELASTIC-HOLD-PLATE-1.762       NO       
       ELASTIC-HOLD-PLATE-1.763       NO       
       ELASTIC-HOLD-PLATE-1.764       NO       
       ELASTIC-HOLD-PLATE-1.765       NO       
       ELASTIC-HOLD-PLATE-1.766       NO       
       ELASTIC-HOLD-PLATE-1.767       NO       
       ELASTIC-HOLD-PLATE-1.768       NO       
       ELASTIC-HOLD-PLATE-1.769       NO       
       ELASTIC-HOLD-PLATE-1.770       NO       
       ELASTIC-HOLD-PLATE-1.771       NO       
       ELASTIC-HOLD-PLATE-1.772       NO       
       ELASTIC-HOLD-PLATE-1.773       NO       
       ELASTIC-HOLD-PLATE-1.774       NO       
       ELASTIC-HOLD-PLATE-1.775       NO       
       ELASTIC-HOLD-PLATE-1.776       NO       
       ELASTIC-HOLD-PLATE-1.777       NO       
       ELASTIC-HOLD-PLATE-1.778       NO       
       ELASTIC-HOLD-PLATE-1.779       NO       
       ELASTIC-HOLD-PLATE-1.780       NO       
       ELASTIC-HOLD-PLATE-1.781       NO       
       ELASTIC-HOLD-PLATE-1.782       NO       
       ELASTIC-HOLD-PLATE-1.783       NO       
       ELASTIC-HOLD-PLATE-1.784       NO       
       ELASTIC-HOLD-PLATE-1.785       NO       
       ELASTIC-HOLD-PLATE-1.786       NO       
       ELASTIC-HOLD-PLATE-1.787       NO       
       ELASTIC-HOLD-PLATE-1.788       NO       
       ELASTIC-HOLD-PLATE-1.789       NO       
       ELASTIC-HOLD-PLATE-1.790       NO       
       ELASTIC-HOLD-PLATE-1.791       NO       
       ELASTIC-HOLD-PLATE-1.792       NO       
       ELASTIC-HOLD-PLATE-1.793       NO       
       ELASTIC-HOLD-PLATE-1.794       NO       
       ELASTIC-HOLD-PLATE-1.795       NO       
       ELASTIC-HOLD-PLATE-1.796       NO       
       ELASTIC-HOLD-PLATE-1.797       NO       
       ELASTIC-HOLD-PLATE-1.798       NO       
       ELASTIC-HOLD-PLATE-1.799       NO       
       ELASTIC-HOLD-PLATE-1.800       NO       
       ELASTIC-HOLD-PLATE-1.801       NO       
       ELASTIC-HOLD-PLATE-1.802       NO       
       ELASTIC-HOLD-PLATE-1.803       NO       
       ELASTIC-HOLD-PLATE-1.804       NO       
       ELASTIC-HOLD-PLATE-1.805       NO       
       ELASTIC-HOLD-PLATE-1.806       NO       
       ELASTIC-HOLD-PLATE-1.807       NO       
       ELASTIC-HOLD-PLATE-1.808       NO       
       ELASTIC-HOLD-PLATE-1.809       NO       
       ELASTIC-HOLD-PLATE-1.810       NO       
       ELASTIC-HOLD-PLATE-1.811       NO       
       ELASTIC-HOLD-PLATE-1.812       NO       
       ELASTIC-HOLD-PLATE-1.813       NO       
       ELASTIC-HOLD-PLATE-1.814       NO       
       ELASTIC-HOLD-PLATE-1.815       NO       
       ELASTIC-HOLD-PLATE-1.816       NO       
       ELASTIC-HOLD-PLATE-1.817       NO       
       ELASTIC-HOLD-PLATE-1.818       NO       
       ELASTIC-HOLD-PLATE-1.819       NO       
       ELASTIC-HOLD-PLATE-1.820       NO       
       ELASTIC-HOLD-PLATE-1.821       NO       
       ELASTIC-HOLD-PLATE-1.822       NO       
       ELASTIC-HOLD-PLATE-1.823       NO       
       ELASTIC-HOLD-PLATE-1.824       NO       
       ELASTIC-HOLD-PLATE-1.825       NO       
       ELASTIC-HOLD-PLATE-1.826       NO       
       ELASTIC-HOLD-PLATE-1.827       NO       
       ELASTIC-HOLD-PLATE-1.828       NO       
       ELASTIC-HOLD-PLATE-1.829       NO       
       ELASTIC-HOLD-PLATE-1.830       NO       
       ELASTIC-HOLD-PLATE-1.831       NO       
       ELASTIC-HOLD-PLATE-1.832       NO       
       ELASTIC-HOLD-PLATE-1.833       NO       
       ELASTIC-HOLD-PLATE-1.834       NO       
       ELASTIC-HOLD-PLATE-1.835       NO       
       ELASTIC-HOLD-PLATE-1.836       NO       
       ELASTIC-HOLD-PLATE-1.837       NO       
       ELASTIC-HOLD-PLATE-1.838       NO       
       ELASTIC-HOLD-PLATE-1.839       NO       
       ELASTIC-HOLD-PLATE-1.840       NO       
       ELASTIC-HOLD-PLATE-1.841       NO       
       ELASTIC-HOLD-PLATE-1.842       NO       
       ELASTIC-HOLD-PLATE-1.843       NO       
       ELASTIC-HOLD-PLATE-1.844       NO       
       ELASTIC-HOLD-PLATE-1.845       NO       
       ELASTIC-HOLD-PLATE-1.846       NO       
       ELASTIC-HOLD-PLATE-1.847       NO       
       ELASTIC-HOLD-PLATE-1.848       NO       
       ELASTIC-HOLD-PLATE-1.849       NO       
       ELASTIC-HOLD-PLATE-1.850       NO       
       ELASTIC-HOLD-PLATE-1.851       NO       
       ELASTIC-HOLD-PLATE-1.852       NO       
       ELASTIC-HOLD-PLATE-1.853       NO       
       ELASTIC-HOLD-PLATE-1.854       NO       
       ELASTIC-HOLD-PLATE-1.855       NO       
       ELASTIC-HOLD-PLATE-1.856       NO       
       ELASTIC-HOLD-PLATE-1.857       NO       
       ELASTIC-HOLD-PLATE-1.858       NO       
       ELASTIC-HOLD-PLATE-1.859       NO       
       ELASTIC-HOLD-PLATE-1.860       NO       
       ELASTIC-HOLD-PLATE-1.861       NO       
       ELASTIC-HOLD-PLATE-1.862       NO       
       ELASTIC-HOLD-PLATE-1.863       NO       
       ELASTIC-HOLD-PLATE-1.864       NO       
       ELASTIC-HOLD-PLATE-1.865       NO       
       ELASTIC-HOLD-PLATE-1.866       NO       
       ELASTIC-HOLD-PLATE-1.867       NO       
       ELASTIC-HOLD-PLATE-1.868       NO       
       ELASTIC-HOLD-PLATE-1.869       NO       
       ELASTIC-HOLD-PLATE-1.870       NO       
       ELASTIC-HOLD-PLATE-1.871       NO       
       ELASTIC-HOLD-PLATE-1.872       NO       
       ELASTIC-HOLD-PLATE-1.873       NO       
       ELASTIC-HOLD-PLATE-1.874       NO       
       ELASTIC-HOLD-PLATE-1.875       NO       
       ELASTIC-HOLD-PLATE-1.876       NO       
       ELASTIC-HOLD-PLATE-1.877       NO       
       ELASTIC-HOLD-PLATE-1.878       NO       
       ELASTIC-HOLD-PLATE-1.879       NO       
       ELASTIC-HOLD-PLATE-1.880       NO       
       ELASTIC-HOLD-PLATE-1.881       NO       
       ELASTIC-HOLD-PLATE-1.882       NO       
       ELASTIC-HOLD-PLATE-1.883       NO       
       ELASTIC-HOLD-PLATE-1.884       NO       
       ELASTIC-HOLD-PLATE-1.885       NO       
       ELASTIC-HOLD-PLATE-1.886       NO       
       ELASTIC-HOLD-PLATE-1.887       NO       
       ELASTIC-HOLD-PLATE-1.888       NO       
       ELASTIC-HOLD-PLATE-1.889       NO       
       ELASTIC-HOLD-PLATE-1.890       NO       
       ELASTIC-HOLD-PLATE-1.891       NO       
       ELASTIC-HOLD-PLATE-1.892       NO       
       ELASTIC-HOLD-PLATE-1.893       NO       
       ELASTIC-HOLD-PLATE-1.894       NO       
       ELASTIC-HOLD-PLATE-1.895       NO       
       ELASTIC-HOLD-PLATE-1.896       NO       
       ELASTIC-HOLD-PLATE-1.897       NO       
       ELASTIC-HOLD-PLATE-1.898       NO       
       ELASTIC-HOLD-PLATE-1.899       NO       
       ELASTIC-HOLD-PLATE-1.900       NO       
       ELASTIC-HOLD-PLATE-1.901       NO       
       ELASTIC-HOLD-PLATE-1.902       NO       
       ELASTIC-HOLD-PLATE-1.903       NO       
       ELASTIC-HOLD-PLATE-1.904       NO       
       ELASTIC-HOLD-PLATE-1.905       NO       
       ELASTIC-HOLD-PLATE-1.906       NO       
       ELASTIC-HOLD-PLATE-1.907       NO       
       ELASTIC-HOLD-PLATE-1.908       NO       
       ELASTIC-HOLD-PLATE-1.909       NO       
       ELASTIC-HOLD-PLATE-1.910       NO       
       ELASTIC-HOLD-PLATE-1.911       NO       
       ELASTIC-HOLD-PLATE-1.912       NO       
       ELASTIC-HOLD-PLATE-1.913       NO       
       ELASTIC-HOLD-PLATE-1.914       NO       
       ELASTIC-HOLD-PLATE-1.915       NO       
       ELASTIC-HOLD-PLATE-1.916       NO       
       ELASTIC-HOLD-PLATE-1.917       NO       
       ELASTIC-HOLD-PLATE-1.918       NO       
       ELASTIC-HOLD-PLATE-1.919       NO       
       ELASTIC-HOLD-PLATE-1.920       NO       
       ELASTIC-HOLD-PLATE-1.921       NO       
       ELASTIC-HOLD-PLATE-1.922       NO       
       ELASTIC-HOLD-PLATE-1.923       NO       
       ELASTIC-HOLD-PLATE-1.924       NO       
       ELASTIC-HOLD-PLATE-1.925       NO       
       ELASTIC-HOLD-PLATE-1.926       NO       
       ELASTIC-HOLD-PLATE-1.927       NO       
       ELASTIC-HOLD-PLATE-1.928       NO       
       ELASTIC-HOLD-PLATE-1.929       NO       
       ELASTIC-HOLD-PLATE-1.930       NO       
       ELASTIC-HOLD-PLATE-1.931       NO       
       ELASTIC-HOLD-PLATE-1.932       NO       
       ELASTIC-HOLD-PLATE-1.933       NO       
       ELASTIC-HOLD-PLATE-1.934       NO       
       ELASTIC-HOLD-PLATE-1.935       NO       
       ELASTIC-HOLD-PLATE-1.936       NO       
       ELASTIC-HOLD-PLATE-1.937       NO       
       ELASTIC-HOLD-PLATE-1.938       NO       
       ELASTIC-HOLD-PLATE-1.939       NO       
       ELASTIC-HOLD-PLATE-1.940       NO       
       ELASTIC-HOLD-PLATE-1.941       NO       
       ELASTIC-HOLD-PLATE-1.942       NO       
       ELASTIC-HOLD-PLATE-1.943       NO       
       ELASTIC-HOLD-PLATE-1.944       NO       
       ELASTIC-HOLD-PLATE-1.945       NO       
       ELASTIC-HOLD-PLATE-1.946       NO       
       ELASTIC-HOLD-PLATE-1.947       NO       
       ELASTIC-HOLD-PLATE-1.948       NO       
       ELASTIC-HOLD-PLATE-1.949       NO       
       ELASTIC-HOLD-PLATE-1.950       NO       
       ELASTIC-HOLD-PLATE-1.951       NO       
       ELASTIC-HOLD-PLATE-1.952       NO       
       ELASTIC-HOLD-PLATE-1.953       NO       
       ELASTIC-HOLD-PLATE-1.954       NO       
       ELASTIC-HOLD-PLATE-1.955       NO       
       ELASTIC-HOLD-PLATE-1.956       NO       
       ELASTIC-HOLD-PLATE-1.957       NO       
       ELASTIC-HOLD-PLATE-1.958       NO       
       ELASTIC-HOLD-PLATE-1.959       NO       
       ELASTIC-HOLD-PLATE-1.960       NO       
       ELASTIC-HOLD-PLATE-1.961       NO       
       ELASTIC-HOLD-PLATE-1.962       NO       
       ELASTIC-HOLD-PLATE-1.963       NO       
       ELASTIC-HOLD-PLATE-1.964       NO       
       ELASTIC-HOLD-PLATE-1.965       NO       
       ELASTIC-HOLD-PLATE-1.966       NO       
       ELASTIC-HOLD-PLATE-1.967       NO       
       ELASTIC-HOLD-PLATE-1.968       NO       
       ELASTIC-HOLD-PLATE-1.969       NO       
       ELASTIC-HOLD-PLATE-1.970       NO       
       ELASTIC-HOLD-PLATE-1.971       NO       
       ELASTIC-HOLD-PLATE-1.972       NO       
       ELASTIC-HOLD-PLATE-1.973       NO       
       ELASTIC-HOLD-PLATE-1.974       NO       
       ELASTIC-HOLD-PLATE-1.975       NO       
       ELASTIC-HOLD-PLATE-1.976       NO       
       ELASTIC-HOLD-PLATE-1.977       NO       
       ELASTIC-HOLD-PLATE-1.978       NO       
       ELASTIC-HOLD-PLATE-1.979       NO       
       ELASTIC-HOLD-PLATE-1.980       NO       
       ELASTIC-HOLD-PLATE-1.981       NO       
       ELASTIC-HOLD-PLATE-1.982       NO       
       ELASTIC-HOLD-PLATE-1.983       NO       
       ELASTIC-HOLD-PLATE-1.984       NO       
       ELASTIC-HOLD-PLATE-1.985       NO       
       ELASTIC-HOLD-PLATE-1.986       NO       
       ELASTIC-HOLD-PLATE-1.987       NO       
       ELASTIC-HOLD-PLATE-1.988       NO       
       ELASTIC-HOLD-PLATE-1.989       NO       
       ELASTIC-HOLD-PLATE-1.990       NO       
       ELASTIC-HOLD-PLATE-1.991       NO       
       ELASTIC-HOLD-PLATE-1.992       NO       
       ELASTIC-HOLD-PLATE-1.993       NO       
       ELASTIC-HOLD-PLATE-1.994       NO       
       ELASTIC-HOLD-PLATE-1.995       NO       
       ELASTIC-HOLD-PLATE-1.996       NO       
       ELASTIC-HOLD-PLATE-1.997       NO       
       ELASTIC-HOLD-PLATE-1.998       NO       
       ELASTIC-HOLD-PLATE-1.999       NO       
      ELASTIC-HOLD-PLATE-1.1000       NO       
      ELASTIC-HOLD-PLATE-1.1001       NO       
      ELASTIC-HOLD-PLATE-1.1002       NO       
      ELASTIC-HOLD-PLATE-1.1003       NO       
      ELASTIC-HOLD-PLATE-1.1004       NO       
      ELASTIC-HOLD-PLATE-1.1005       NO       
      ELASTIC-HOLD-PLATE-1.1006       NO       
      ELASTIC-HOLD-PLATE-1.1007       NO       
      ELASTIC-HOLD-PLATE-1.1008       NO       
      ELASTIC-HOLD-PLATE-1.1009       NO       
      ELASTIC-HOLD-PLATE-1.1010       NO       
      ELASTIC-HOLD-PLATE-1.1011       NO       
      ELASTIC-HOLD-PLATE-1.1012       NO       
      ELASTIC-HOLD-PLATE-1.1013       NO       
      ELASTIC-HOLD-PLATE-1.1014       NO       
      ELASTIC-HOLD-PLATE-1.1015       NO       
      ELASTIC-HOLD-PLATE-1.1016       NO       
      ELASTIC-HOLD-PLATE-1.1017       NO       
      ELASTIC-HOLD-PLATE-1.1018       NO       
      ELASTIC-HOLD-PLATE-1.1019       NO       
      ELASTIC-HOLD-PLATE-1.1020       NO       
      ELASTIC-HOLD-PLATE-1.1021       NO       
      ELASTIC-HOLD-PLATE-1.1022       NO       
      ELASTIC-HOLD-PLATE-1.1023       NO       
      ELASTIC-HOLD-PLATE-1.1024       NO       
      ELASTIC-HOLD-PLATE-1.1025       NO       
      ELASTIC-HOLD-PLATE-1.1026       NO       
      ELASTIC-HOLD-PLATE-1.1027       NO       
      ELASTIC-HOLD-PLATE-1.1028       NO       
      ELASTIC-HOLD-PLATE-1.1029       NO       
      ELASTIC-HOLD-PLATE-1.1030       NO       
      ELASTIC-HOLD-PLATE-1.1031       NO       
      ELASTIC-HOLD-PLATE-1.1032       NO       
      ELASTIC-HOLD-PLATE-1.1033       NO       
      ELASTIC-HOLD-PLATE-1.1034       NO       
      ELASTIC-HOLD-PLATE-1.1035       NO       
      ELASTIC-HOLD-PLATE-1.1036       NO       
      ELASTIC-HOLD-PLATE-1.1037       NO       
      ELASTIC-HOLD-PLATE-1.1038       NO       
      ELASTIC-HOLD-PLATE-1.1039       NO       
      ELASTIC-HOLD-PLATE-1.1040       NO       
      ELASTIC-HOLD-PLATE-1.1041       NO       
      ELASTIC-HOLD-PLATE-1.1042       NO       
      ELASTIC-HOLD-PLATE-1.1043       NO       
      ELASTIC-HOLD-PLATE-1.1044       NO       
      ELASTIC-HOLD-PLATE-1.1045       NO       
      ELASTIC-HOLD-PLATE-1.1046       NO       
      ELASTIC-HOLD-PLATE-1.1047       NO       
      ELASTIC-HOLD-PLATE-1.1048       NO       
      ELASTIC-HOLD-PLATE-1.1049       NO       
      ELASTIC-HOLD-PLATE-1.1050       NO       
      ELASTIC-HOLD-PLATE-1.1051       NO       
      ELASTIC-HOLD-PLATE-1.1052       NO       
      ELASTIC-HOLD-PLATE-1.1053       NO       
      ELASTIC-HOLD-PLATE-1.1054       NO       
      ELASTIC-HOLD-PLATE-1.1055       NO       
      ELASTIC-HOLD-PLATE-1.1056       NO       
      ELASTIC-HOLD-PLATE-1.1057       NO       
      ELASTIC-HOLD-PLATE-1.1058       NO       
      ELASTIC-HOLD-PLATE-1.1059       NO       
      ELASTIC-HOLD-PLATE-1.1060       NO       
      ELASTIC-HOLD-PLATE-1.1061       NO       
      ELASTIC-HOLD-PLATE-1.1062       NO       
      ELASTIC-HOLD-PLATE-1.1063       NO       
      ELASTIC-HOLD-PLATE-1.1064       NO       
      ELASTIC-HOLD-PLATE-1.1065       NO       
      ELASTIC-HOLD-PLATE-1.1066       NO       
      ELASTIC-HOLD-PLATE-1.1067       NO       
      ELASTIC-HOLD-PLATE-1.1068       NO       
      ELASTIC-HOLD-PLATE-1.1069       NO       
      ELASTIC-HOLD-PLATE-1.1070       NO       
      ELASTIC-HOLD-PLATE-1.1071       NO       
      ELASTIC-HOLD-PLATE-1.1072       NO       
      ELASTIC-HOLD-PLATE-1.1073       NO       
      ELASTIC-HOLD-PLATE-1.1074       NO       
      ELASTIC-HOLD-PLATE-1.1075       NO       
      ELASTIC-HOLD-PLATE-1.1076       NO       
      ELASTIC-HOLD-PLATE-1.1077       NO       
      ELASTIC-HOLD-PLATE-1.1078       NO       
      ELASTIC-HOLD-PLATE-1.1079       NO       
      ELASTIC-HOLD-PLATE-1.1080       NO       
      ELASTIC-HOLD-PLATE-1.1081       NO       
      ELASTIC-HOLD-PLATE-1.1082       NO       
      ELASTIC-HOLD-PLATE-1.1083       NO       
      ELASTIC-HOLD-PLATE-1.1084       NO       
      ELASTIC-HOLD-PLATE-1.1085       NO       
      ELASTIC-HOLD-PLATE-1.1086       NO       
      ELASTIC-HOLD-PLATE-1.1087       NO       
      ELASTIC-HOLD-PLATE-1.1088       NO       
      ELASTIC-HOLD-PLATE-1.1089       NO       
      ELASTIC-HOLD-PLATE-1.1090       NO       
      ELASTIC-HOLD-PLATE-1.1091       NO       
      ELASTIC-HOLD-PLATE-1.1092       NO       
      ELASTIC-HOLD-PLATE-1.1093       NO       
      ELASTIC-HOLD-PLATE-1.1094       NO       
      ELASTIC-HOLD-PLATE-1.1095       NO       
      ELASTIC-HOLD-PLATE-1.1096       NO       
      ELASTIC-HOLD-PLATE-1.1097       NO       
      ELASTIC-HOLD-PLATE-1.1098       NO       
      ELASTIC-HOLD-PLATE-1.1099       NO       
      ELASTIC-HOLD-PLATE-1.1100       NO       
      ELASTIC-HOLD-PLATE-1.1101       NO       
      ELASTIC-HOLD-PLATE-1.1102       NO       
      ELASTIC-HOLD-PLATE-1.1103       NO       
      ELASTIC-HOLD-PLATE-1.1104       NO       
      ELASTIC-HOLD-PLATE-1.1105       NO       
      ELASTIC-HOLD-PLATE-1.1106       NO       
      ELASTIC-HOLD-PLATE-1.1107       NO       
      ELASTIC-HOLD-PLATE-1.1108       NO       
      ELASTIC-HOLD-PLATE-1.1109       NO       
      ELASTIC-HOLD-PLATE-1.1110       NO       
      ELASTIC-HOLD-PLATE-1.1111       NO       
      ELASTIC-HOLD-PLATE-1.1112       NO       
      ELASTIC-HOLD-PLATE-1.1113       NO       
      ELASTIC-HOLD-PLATE-1.1114       NO       
      ELASTIC-HOLD-PLATE-1.1115       NO       
      ELASTIC-HOLD-PLATE-1.1116       NO       
      ELASTIC-HOLD-PLATE-1.1117       NO       
      ELASTIC-HOLD-PLATE-1.1118       NO       
      ELASTIC-HOLD-PLATE-1.1119       NO       
      ELASTIC-HOLD-PLATE-1.1120       NO       
      ELASTIC-HOLD-PLATE-1.1121       NO       
      ELASTIC-HOLD-PLATE-1.1122       NO       
      ELASTIC-HOLD-PLATE-1.1123       NO       
      ELASTIC-HOLD-PLATE-1.1124       NO       
      ELASTIC-HOLD-PLATE-1.1125       NO       
      ELASTIC-HOLD-PLATE-1.1126       NO       
      ELASTIC-HOLD-PLATE-1.1127       NO       
      ELASTIC-HOLD-PLATE-1.1128       NO       
      ELASTIC-HOLD-PLATE-1.1129       NO       
      ELASTIC-HOLD-PLATE-1.1130       NO       
      ELASTIC-HOLD-PLATE-1.1131       NO       
      ELASTIC-HOLD-PLATE-1.1132       NO       
      ELASTIC-HOLD-PLATE-1.1133       NO       
      ELASTIC-HOLD-PLATE-1.1134       NO       
      ELASTIC-HOLD-PLATE-1.1135       NO       
      ELASTIC-HOLD-PLATE-1.1136       NO       
      ELASTIC-HOLD-PLATE-1.1137       NO       
      ELASTIC-HOLD-PLATE-1.1138       NO       
      ELASTIC-HOLD-PLATE-1.1139       NO       
      ELASTIC-HOLD-PLATE-1.1140       NO       
      ELASTIC-HOLD-PLATE-1.1141       NO       
      ELASTIC-HOLD-PLATE-1.1142       NO       
      ELASTIC-HOLD-PLATE-1.1143       NO       
      ELASTIC-HOLD-PLATE-1.1144       NO       
      ELASTIC-HOLD-PLATE-1.1145       NO       
      ELASTIC-HOLD-PLATE-1.1146       NO       
      ELASTIC-HOLD-PLATE-1.1147       NO       
      ELASTIC-HOLD-PLATE-1.1148       NO       
      ELASTIC-HOLD-PLATE-1.1149       NO       
      ELASTIC-HOLD-PLATE-1.1150       NO       
      ELASTIC-HOLD-PLATE-1.1151       NO       
      ELASTIC-HOLD-PLATE-1.1152       NO       
      ELASTIC-HOLD-PLATE-1.1153       NO       
      ELASTIC-HOLD-PLATE-1.1154       NO       
      ELASTIC-HOLD-PLATE-1.1155       NO       
      ELASTIC-HOLD-PLATE-1.1156       NO       
      ELASTIC-HOLD-PLATE-1.1157       NO       
      ELASTIC-HOLD-PLATE-1.1158       NO       
      ELASTIC-HOLD-PLATE-1.1159       NO       
      ELASTIC-HOLD-PLATE-1.1160       NO       
      ELASTIC-HOLD-PLATE-1.1161       NO       
      ELASTIC-HOLD-PLATE-1.1162       NO       
      ELASTIC-HOLD-PLATE-1.1163       NO       
      ELASTIC-HOLD-PLATE-1.1164       NO       
      ELASTIC-HOLD-PLATE-1.1165       NO       
      ELASTIC-HOLD-PLATE-1.1166       NO       
      ELASTIC-HOLD-PLATE-1.1167       NO       
      ELASTIC-HOLD-PLATE-1.1168       NO       
      ELASTIC-HOLD-PLATE-1.1169       NO       
      ELASTIC-HOLD-PLATE-1.1170       NO       
      ELASTIC-HOLD-PLATE-1.1171       NO       
      ELASTIC-HOLD-PLATE-1.1172       NO       
      ELASTIC-HOLD-PLATE-1.1173       NO       
      ELASTIC-HOLD-PLATE-1.1174       NO       
      ELASTIC-HOLD-PLATE-1.1175       NO       
      ELASTIC-HOLD-PLATE-1.1176       NO       
      ELASTIC-HOLD-PLATE-1.1177       NO       
      ELASTIC-HOLD-PLATE-1.1178       NO       
      ELASTIC-HOLD-PLATE-1.1179       NO       
      ELASTIC-HOLD-PLATE-1.1180       NO       
      ELASTIC-HOLD-PLATE-1.1181       NO       
      ELASTIC-HOLD-PLATE-1.1182       NO       
      ELASTIC-HOLD-PLATE-1.1183       NO       
      ELASTIC-HOLD-PLATE-1.1184       NO       
      ELASTIC-HOLD-PLATE-1.1185       NO       
      ELASTIC-HOLD-PLATE-1.1186       NO       
      ELASTIC-HOLD-PLATE-1.1187       NO       
      ELASTIC-HOLD-PLATE-1.1188       NO       
      ELASTIC-HOLD-PLATE-1.1189       NO       
      ELASTIC-HOLD-PLATE-1.1190       NO       
      ELASTIC-HOLD-PLATE-1.1191       NO       
      ELASTIC-HOLD-PLATE-1.1192       NO       
      ELASTIC-HOLD-PLATE-1.1193       NO       
      ELASTIC-HOLD-PLATE-1.1194       NO       
      ELASTIC-HOLD-PLATE-1.1195       NO       
      ELASTIC-HOLD-PLATE-1.1196       NO       
      ELASTIC-HOLD-PLATE-1.1197       NO       
      ELASTIC-HOLD-PLATE-1.1198       NO       
      ELASTIC-HOLD-PLATE-1.1199       NO       
      ELASTIC-HOLD-PLATE-1.1200       NO       
      ELASTIC-HOLD-PLATE-1.1201       NO       
      ELASTIC-HOLD-PLATE-1.1202       NO       
      ELASTIC-HOLD-PLATE-1.1203       NO       
      ELASTIC-HOLD-PLATE-1.1204       NO       
      ELASTIC-HOLD-PLATE-1.1205       NO       
      ELASTIC-HOLD-PLATE-1.1206       NO       
      ELASTIC-HOLD-PLATE-1.1207       NO       
      ELASTIC-HOLD-PLATE-1.1208       NO       
      ELASTIC-HOLD-PLATE-1.1209       NO       
      ELASTIC-HOLD-PLATE-1.1210       NO       
      ELASTIC-HOLD-PLATE-1.1211       NO       
      ELASTIC-HOLD-PLATE-1.1212       NO       
      ELASTIC-HOLD-PLATE-1.1213       NO       
      ELASTIC-HOLD-PLATE-1.1214       NO       
      ELASTIC-HOLD-PLATE-1.1215       NO       
      ELASTIC-HOLD-PLATE-1.1216       NO       
      ELASTIC-HOLD-PLATE-1.1217       NO       
      ELASTIC-HOLD-PLATE-1.1218       NO       
      ELASTIC-HOLD-PLATE-1.1219       NO       
      ELASTIC-HOLD-PLATE-1.1220       NO       
      ELASTIC-HOLD-PLATE-1.1221       NO       
      ELASTIC-HOLD-PLATE-1.1222       NO       
      ELASTIC-HOLD-PLATE-1.1223       NO       
      ELASTIC-HOLD-PLATE-1.1224       NO       
      ELASTIC-HOLD-PLATE-1.1225       NO       
      ELASTIC-HOLD-PLATE-1.1226       NO       
      ELASTIC-HOLD-PLATE-1.1227       NO       
      ELASTIC-HOLD-PLATE-1.1228       NO       
      ELASTIC-HOLD-PLATE-1.1229       NO       
      ELASTIC-HOLD-PLATE-1.1230       NO       
      ELASTIC-HOLD-PLATE-1.1231       NO       
      ELASTIC-HOLD-PLATE-1.1232       NO       
      ELASTIC-HOLD-PLATE-1.1233       NO       
      ELASTIC-HOLD-PLATE-1.1234       NO       
      ELASTIC-HOLD-PLATE-1.1235       NO       
      ELASTIC-HOLD-PLATE-1.1236       NO       
      ELASTIC-HOLD-PLATE-1.1237       NO       
      ELASTIC-HOLD-PLATE-1.1238       NO       
      ELASTIC-HOLD-PLATE-1.1239       NO       
      ELASTIC-HOLD-PLATE-1.1240       NO       
      ELASTIC-HOLD-PLATE-1.1241       NO       
      ELASTIC-HOLD-PLATE-1.1242       NO       
      ELASTIC-HOLD-PLATE-1.1243       NO       
      ELASTIC-HOLD-PLATE-1.1244       NO       
      ELASTIC-HOLD-PLATE-1.1245       NO       
      ELASTIC-HOLD-PLATE-1.1246       NO       
      ELASTIC-HOLD-PLATE-1.1247       NO       
      ELASTIC-HOLD-PLATE-1.1248       NO       
      ELASTIC-HOLD-PLATE-1.1249       NO       
      ELASTIC-HOLD-PLATE-1.1250       NO       
      ELASTIC-HOLD-PLATE-1.1251       NO       
      ELASTIC-HOLD-PLATE-1.1252       NO       
      ELASTIC-HOLD-PLATE-1.1253       NO       
      ELASTIC-HOLD-PLATE-1.1254       NO       
      ELASTIC-HOLD-PLATE-1.1255       NO       
      ELASTIC-HOLD-PLATE-1.1256       NO       
      ELASTIC-HOLD-PLATE-1.1257       NO       
      ELASTIC-HOLD-PLATE-1.1258       NO       
      ELASTIC-HOLD-PLATE-1.1259       NO       
      ELASTIC-HOLD-PLATE-1.1260       NO       
      ELASTIC-HOLD-PLATE-1.1261       NO       
      ELASTIC-HOLD-PLATE-1.1262       NO       
      ELASTIC-HOLD-PLATE-1.1263       NO       
      ELASTIC-HOLD-PLATE-1.1264       NO       
      ELASTIC-HOLD-PLATE-1.1265       NO       
      ELASTIC-HOLD-PLATE-1.1266       NO       
      ELASTIC-HOLD-PLATE-1.1267       NO       
      ELASTIC-HOLD-PLATE-1.1268       NO       
      ELASTIC-HOLD-PLATE-1.1269       NO       
      ELASTIC-HOLD-PLATE-1.1270       NO       
      ELASTIC-HOLD-PLATE-1.1271       NO       
      ELASTIC-HOLD-PLATE-1.1272       NO       
      ELASTIC-HOLD-PLATE-1.1273       NO       
      ELASTIC-HOLD-PLATE-1.1274       NO       
      ELASTIC-HOLD-PLATE-1.1275       NO       
      ELASTIC-HOLD-PLATE-1.1276       NO       
      ELASTIC-HOLD-PLATE-1.1277       NO       
      ELASTIC-HOLD-PLATE-1.1278       NO       
      ELASTIC-HOLD-PLATE-1.1279       NO       
      ELASTIC-HOLD-PLATE-1.1280       NO       
      ELASTIC-HOLD-PLATE-1.1281       NO       
      ELASTIC-HOLD-PLATE-1.1282       NO       
      ELASTIC-HOLD-PLATE-1.1283       NO       
      ELASTIC-HOLD-PLATE-1.1284       NO       
      ELASTIC-HOLD-PLATE-1.1285       NO       
      ELASTIC-HOLD-PLATE-1.1286       NO       
      ELASTIC-HOLD-PLATE-1.1287       NO       
      ELASTIC-HOLD-PLATE-1.1288       NO       
      ELASTIC-HOLD-PLATE-1.1289       NO       
      ELASTIC-HOLD-PLATE-1.1290       NO       
      ELASTIC-HOLD-PLATE-1.1291       NO       
      ELASTIC-HOLD-PLATE-1.1292       NO       
      ELASTIC-HOLD-PLATE-1.1293       NO       
      ELASTIC-HOLD-PLATE-1.1294       NO       
      ELASTIC-HOLD-PLATE-1.1295       NO       
      ELASTIC-HOLD-PLATE-1.1296       NO       
      ELASTIC-HOLD-PLATE-1.1297       NO       
      ELASTIC-HOLD-PLATE-1.1298       NO       
      ELASTIC-HOLD-PLATE-1.1299       NO       
      ELASTIC-HOLD-PLATE-1.1300       NO       
      ELASTIC-HOLD-PLATE-1.1301       NO       
      ELASTIC-HOLD-PLATE-1.1302       NO       
      ELASTIC-HOLD-PLATE-1.1303       NO       
      ELASTIC-HOLD-PLATE-1.1304       NO       
      ELASTIC-HOLD-PLATE-1.1305       NO       
      ELASTIC-HOLD-PLATE-1.1306       NO       
      ELASTIC-HOLD-PLATE-1.1307       NO       
      ELASTIC-HOLD-PLATE-1.1308       NO       
      ELASTIC-HOLD-PLATE-1.1309       NO       
      ELASTIC-HOLD-PLATE-1.1310       NO       
      ELASTIC-HOLD-PLATE-1.1311       NO       
      ELASTIC-HOLD-PLATE-1.1312       NO       
      ELASTIC-HOLD-PLATE-1.1313       NO       
      ELASTIC-HOLD-PLATE-1.1314       NO       
      ELASTIC-HOLD-PLATE-1.1315       NO       
      ELASTIC-HOLD-PLATE-1.1316       NO       
      ELASTIC-HOLD-PLATE-1.1317       NO       
      ELASTIC-HOLD-PLATE-1.1318       NO       
      ELASTIC-HOLD-PLATE-1.1319       NO       
      ELASTIC-HOLD-PLATE-1.1320       NO       
      ELASTIC-HOLD-PLATE-1.1321       NO       
      ELASTIC-HOLD-PLATE-1.1322       NO       
      ELASTIC-HOLD-PLATE-1.1323       NO       
      ELASTIC-HOLD-PLATE-1.1324       NO       
      ELASTIC-HOLD-PLATE-1.1325       NO       
      ELASTIC-HOLD-PLATE-1.1326       NO       
      ELASTIC-HOLD-PLATE-1.1327       NO       
      ELASTIC-HOLD-PLATE-1.1328       NO       
      ELASTIC-HOLD-PLATE-1.1329       NO       
      ELASTIC-HOLD-PLATE-1.1330       NO       
      ELASTIC-HOLD-PLATE-1.1331       NO       
      ELASTIC-HOLD-PLATE-1.1332       NO       
      ELASTIC-HOLD-PLATE-1.1333       NO       
      ELASTIC-HOLD-PLATE-1.1334       NO       
      ELASTIC-HOLD-PLATE-1.1335       NO       
      ELASTIC-HOLD-PLATE-1.1336       NO       
      ELASTIC-HOLD-PLATE-1.1337       NO       
      ELASTIC-HOLD-PLATE-1.1338       NO       
      ELASTIC-HOLD-PLATE-1.1339       NO       
      ELASTIC-HOLD-PLATE-1.1340       NO       
      ELASTIC-HOLD-PLATE-1.1341       NO       
      ELASTIC-HOLD-PLATE-1.1342       NO       
      ELASTIC-HOLD-PLATE-1.1343       NO       
      ELASTIC-HOLD-PLATE-1.1344       NO       
      ELASTIC-HOLD-PLATE-1.1345       NO       
      ELASTIC-HOLD-PLATE-1.1346       NO       
      ELASTIC-HOLD-PLATE-1.1347       NO       
      ELASTIC-HOLD-PLATE-1.1348       NO       
      ELASTIC-HOLD-PLATE-1.1349       NO       
      ELASTIC-HOLD-PLATE-1.1350       NO       
      ELASTIC-HOLD-PLATE-1.1351       NO       
      ELASTIC-HOLD-PLATE-1.1352       NO       
      ELASTIC-HOLD-PLATE-1.1353       NO       
      ELASTIC-HOLD-PLATE-1.1354       NO       
      ELASTIC-HOLD-PLATE-1.1355       NO       
      ELASTIC-HOLD-PLATE-1.1356       NO       
      ELASTIC-HOLD-PLATE-1.1357       NO       
      ELASTIC-HOLD-PLATE-1.1358       NO       
      ELASTIC-HOLD-PLATE-1.1359       NO       
      ELASTIC-HOLD-PLATE-1.1360       NO       
      ELASTIC-HOLD-PLATE-1.1361       NO       
      ELASTIC-HOLD-PLATE-1.1362       NO       
      ELASTIC-HOLD-PLATE-1.1363       NO       
      ELASTIC-HOLD-PLATE-1.1364       NO       
      ELASTIC-HOLD-PLATE-1.1365       NO       
      ELASTIC-HOLD-PLATE-1.1366       NO       
      ELASTIC-HOLD-PLATE-1.1367       NO       
      ELASTIC-HOLD-PLATE-1.1368       NO       
      ELASTIC-HOLD-PLATE-1.1369       NO       
      ELASTIC-HOLD-PLATE-1.1370       NO       
      ELASTIC-HOLD-PLATE-1.1371       NO       
      ELASTIC-HOLD-PLATE-1.1372       NO       
      ELASTIC-HOLD-PLATE-1.1373       NO       
      ELASTIC-HOLD-PLATE-1.1374       NO       
      ELASTIC-HOLD-PLATE-1.1375       NO       
      ELASTIC-HOLD-PLATE-1.1376       NO       
      ELASTIC-HOLD-PLATE-1.1377       NO       
      ELASTIC-HOLD-PLATE-1.1378       NO       
      ELASTIC-HOLD-PLATE-1.1379       NO       
      ELASTIC-HOLD-PLATE-1.1380       NO       
      ELASTIC-HOLD-PLATE-1.1381       NO       
      ELASTIC-HOLD-PLATE-1.1382       NO       
      ELASTIC-HOLD-PLATE-1.1383       NO       
      ELASTIC-HOLD-PLATE-1.1384       NO       
      ELASTIC-HOLD-PLATE-1.1385       NO       
      ELASTIC-HOLD-PLATE-1.1386       NO       
      ELASTIC-HOLD-PLATE-1.1387       NO       
      ELASTIC-HOLD-PLATE-1.1388       NO       
      ELASTIC-HOLD-PLATE-1.1389       NO       
      ELASTIC-HOLD-PLATE-1.1390       NO       
      ELASTIC-HOLD-PLATE-1.1391       NO       
      ELASTIC-HOLD-PLATE-1.1392       NO       
      ELASTIC-HOLD-PLATE-1.1393       NO       
      ELASTIC-HOLD-PLATE-1.1394       NO       
      ELASTIC-HOLD-PLATE-1.1395       NO       
      ELASTIC-HOLD-PLATE-1.1396       NO       
      ELASTIC-HOLD-PLATE-1.1397       NO       
      ELASTIC-HOLD-PLATE-1.1398       NO       
      ELASTIC-HOLD-PLATE-1.1399       NO       
      ELASTIC-HOLD-PLATE-1.1400       NO       
      ELASTIC-HOLD-PLATE-1.1401       NO       
      ELASTIC-HOLD-PLATE-1.1402       NO       
      ELASTIC-HOLD-PLATE-1.1403       NO       
      ELASTIC-HOLD-PLATE-1.1404       NO       
      ELASTIC-HOLD-PLATE-1.1405       NO       
      ELASTIC-HOLD-PLATE-1.1406       NO       
      ELASTIC-HOLD-PLATE-1.1407       NO       
      ELASTIC-HOLD-PLATE-1.1408       NO       
      ELASTIC-HOLD-PLATE-1.1409       NO       
      ELASTIC-HOLD-PLATE-1.1410       NO       
      ELASTIC-HOLD-PLATE-1.1411       NO       
      ELASTIC-HOLD-PLATE-1.1412       NO       
      ELASTIC-HOLD-PLATE-1.1413       NO       
      ELASTIC-HOLD-PLATE-1.1414       NO       
      ELASTIC-HOLD-PLATE-1.1415       NO       
      ELASTIC-HOLD-PLATE-1.1416       NO       
      ELASTIC-HOLD-PLATE-1.1417       NO       
      ELASTIC-HOLD-PLATE-1.1418       NO       
      ELASTIC-HOLD-PLATE-1.1419       NO       
      ELASTIC-HOLD-PLATE-1.1420       NO       
      ELASTIC-HOLD-PLATE-1.1421       NO       
      ELASTIC-HOLD-PLATE-1.1422       NO       
      ELASTIC-HOLD-PLATE-1.1423       NO       
      ELASTIC-HOLD-PLATE-1.1424       NO       
      ELASTIC-HOLD-PLATE-1.1425       NO       
      ELASTIC-HOLD-PLATE-1.1426       NO       
      ELASTIC-HOLD-PLATE-1.1427       NO       
      ELASTIC-HOLD-PLATE-1.1428       NO       
      ELASTIC-HOLD-PLATE-1.1429       NO       
      ELASTIC-HOLD-PLATE-1.1430       NO       
      ELASTIC-HOLD-PLATE-1.1431       NO       
      ELASTIC-HOLD-PLATE-1.1432       NO       
      ELASTIC-HOLD-PLATE-1.1433       NO       
      ELASTIC-HOLD-PLATE-1.1434       NO       
      ELASTIC-HOLD-PLATE-1.1435       NO       
      ELASTIC-HOLD-PLATE-1.1436       NO       
      ELASTIC-HOLD-PLATE-1.1437       NO       
      ELASTIC-HOLD-PLATE-1.1438       NO       
      ELASTIC-HOLD-PLATE-1.1439       NO       
      ELASTIC-HOLD-PLATE-1.1440       NO       
      ELASTIC-HOLD-PLATE-1.1441       NO       
      ELASTIC-HOLD-PLATE-1.1442       NO       
      ELASTIC-HOLD-PLATE-1.1443       NO       
      ELASTIC-HOLD-PLATE-1.1444       NO       
      ELASTIC-HOLD-PLATE-1.1445       NO       
      ELASTIC-HOLD-PLATE-1.1446       NO       
      ELASTIC-HOLD-PLATE-1.1447       NO       
      ELASTIC-HOLD-PLATE-1.1448       NO       
      ELASTIC-HOLD-PLATE-1.1449       NO       
      ELASTIC-HOLD-PLATE-1.1450       NO       
      ELASTIC-HOLD-PLATE-1.1451       NO       
      ELASTIC-HOLD-PLATE-1.1452       NO       
      ELASTIC-HOLD-PLATE-1.1453       NO       
      ELASTIC-HOLD-PLATE-1.1454       NO       
      ELASTIC-HOLD-PLATE-1.1455       NO       
      ELASTIC-HOLD-PLATE-1.1456       NO       
      ELASTIC-HOLD-PLATE-1.1457       NO       
      ELASTIC-HOLD-PLATE-1.1458       NO       
      ELASTIC-HOLD-PLATE-1.1459       NO       
      ELASTIC-HOLD-PLATE-1.1460       NO       
      ELASTIC-HOLD-PLATE-1.1461       NO       
      ELASTIC-HOLD-PLATE-1.1462       NO       
      ELASTIC-HOLD-PLATE-1.1463       NO       
      ELASTIC-HOLD-PLATE-1.1464       NO       
      ELASTIC-HOLD-PLATE-1.1465       NO       
      ELASTIC-HOLD-PLATE-1.1466       NO       
      ELASTIC-HOLD-PLATE-1.1467       NO       
      ELASTIC-HOLD-PLATE-1.1468       NO       
      ELASTIC-HOLD-PLATE-1.1469       NO       
      ELASTIC-HOLD-PLATE-1.1470       NO       
      ELASTIC-HOLD-PLATE-1.1471       NO       
      ELASTIC-HOLD-PLATE-1.1472       NO       
      ELASTIC-HOLD-PLATE-1.1473       NO       
      ELASTIC-HOLD-PLATE-1.1474       NO       
      ELASTIC-HOLD-PLATE-1.1475       NO       
      ELASTIC-HOLD-PLATE-1.1476       NO       
      ELASTIC-HOLD-PLATE-1.1477       NO       
      ELASTIC-HOLD-PLATE-1.1478       NO       
      ELASTIC-HOLD-PLATE-1.1479       NO       
      ELASTIC-HOLD-PLATE-1.1480       NO       
      ELASTIC-HOLD-PLATE-1.1481       NO       
      ELASTIC-HOLD-PLATE-1.1482       NO       
      ELASTIC-HOLD-PLATE-1.1483       NO       
      ELASTIC-HOLD-PLATE-1.1484       NO       
      ELASTIC-HOLD-PLATE-1.1485       NO       
      ELASTIC-HOLD-PLATE-1.1486       NO       
      ELASTIC-HOLD-PLATE-1.1487       NO       
      ELASTIC-HOLD-PLATE-1.1488       NO       
      ELASTIC-HOLD-PLATE-1.1489       NO       
      ELASTIC-HOLD-PLATE-1.1490       NO       
      ELASTIC-HOLD-PLATE-1.1491       NO       
      ELASTIC-HOLD-PLATE-1.1492       NO       
      ELASTIC-HOLD-PLATE-1.1493       NO       
      ELASTIC-HOLD-PLATE-1.1494       NO       
      ELASTIC-HOLD-PLATE-1.1495       NO       
      ELASTIC-HOLD-PLATE-1.1496       NO       
      ELASTIC-HOLD-PLATE-1.1497       NO       
[...]
      ELASTIC-HOLD-PLATE-1.4099       NO       
      ELASTIC-HOLD-PLATE-1.4100       NO       
      ELASTIC-HOLD-PLATE-1.4101       NO       
      ELASTIC-HOLD-PLATE-1.4102       NO       
      ELASTIC-HOLD-PLATE-1.4103       NO       
      ELASTIC-HOLD-PLATE-1.4104       NO       
      ELASTIC-HOLD-PLATE-1.4105       NO       
      ELASTIC-HOLD-PLATE-1.4106       NO       
      ELASTIC-HOLD-PLATE-1.4107       NO       
      ELASTIC-HOLD-PLATE-1.4108       NO       
      ELASTIC-HOLD-PLATE-1.4109       NO       
      ELASTIC-HOLD-PLATE-1.4110       NO       
      ELASTIC-HOLD-PLATE-1.4111       NO       
      ELASTIC-HOLD-PLATE-1.4112       NO       
      ELASTIC-HOLD-PLATE-1.4113       NO       
      ELASTIC-HOLD-PLATE-1.4114       NO       
      ELASTIC-HOLD-PLATE-1.4115       NO       
      ELASTIC-HOLD-PLATE-1.4116       NO       
      ELASTIC-HOLD-PLATE-1.4117       NO       
      ELASTIC-HOLD-PLATE-1.4118       NO       
      ELASTIC-HOLD-PLATE-1.4119       NO       
      ELASTIC-HOLD-PLATE-1.4120       NO       
      ELASTIC-HOLD-PLATE-1.4121       NO       
      ELASTIC-HOLD-PLATE-1.4122       NO       
      ELASTIC-HOLD-PLATE-1.4123       NO       
      ELASTIC-HOLD-PLATE-1.4124       NO       
      ELASTIC-HOLD-PLATE-1.4125       NO       
      ELASTIC-HOLD-PLATE-1.4126       NO       
      ELASTIC-HOLD-PLATE-1.4127       NO       
      ELASTIC-HOLD-PLATE-1.4128       NO       
      ELASTIC-HOLD-PLATE-1.4129       NO       
      ELASTIC-HOLD-PLATE-1.4130       NO       
      ELASTIC-HOLD-PLATE-1.4131       NO       
      ELASTIC-HOLD-PLATE-1.4132       NO       
      ELASTIC-HOLD-PLATE-1.4133       NO       
      ELASTIC-HOLD-PLATE-1.4134       NO       
      ELASTIC-HOLD-PLATE-1.4135       NO       
      ELASTIC-HOLD-PLATE-1.4136       NO       
      ELASTIC-HOLD-PLATE-1.4137       NO       
      ELASTIC-HOLD-PLATE-1.4138       NO       
      ELASTIC-HOLD-PLATE-1.4139       NO       
      ELASTIC-HOLD-PLATE-1.4140       NO       
      ELASTIC-HOLD-PLATE-1.4141       NO       
      ELASTIC-HOLD-PLATE-1.4142       NO       
      ELASTIC-HOLD-PLATE-1.4143       NO       
      ELASTIC-HOLD-PLATE-1.4144       NO       
      ELASTIC-HOLD-PLATE-1.4145       NO       
      ELASTIC-HOLD-PLATE-1.4146       NO       
      ELASTIC-HOLD-PLATE-1.4147       NO       
      ELASTIC-HOLD-PLATE-1.4148       NO       
      ELASTIC-HOLD-PLATE-1.4149       NO       
      ELASTIC-HOLD-PLATE-1.4150       NO       
      ELASTIC-HOLD-PLATE-1.4151       NO       
      ELASTIC-HOLD-PLATE-1.4152       NO       
      ELASTIC-HOLD-PLATE-1.4153       NO       
      ELASTIC-HOLD-PLATE-1.4154       NO       
      ELASTIC-HOLD-PLATE-1.4155       NO       
      ELASTIC-HOLD-PLATE-1.4156       NO       
      ELASTIC-HOLD-PLATE-1.4157       NO       
      ELASTIC-HOLD-PLATE-1.4158       NO       
      ELASTIC-HOLD-PLATE-1.4159       NO       
      ELASTIC-HOLD-PLATE-1.4160       NO       
      ELASTIC-HOLD-PLATE-1.4161       NO       
      ELASTIC-HOLD-PLATE-1.4162       NO       
      ELASTIC-HOLD-PLATE-1.4163       NO       
      ELASTIC-HOLD-PLATE-1.4164       NO       
      ELASTIC-HOLD-PLATE-1.4165       NO       
      ELASTIC-HOLD-PLATE-1.4166       NO       
      ELASTIC-HOLD-PLATE-1.4167       NO       
      ELASTIC-HOLD-PLATE-1.4168       NO       
      ELASTIC-HOLD-PLATE-1.4169       NO       
      ELASTIC-HOLD-PLATE-1.4170       NO       
      ELASTIC-HOLD-PLATE-1.4171       NO       
      ELASTIC-HOLD-PLATE-1.4172       NO       
      ELASTIC-HOLD-PLATE-1.4173       NO       
      ELASTIC-HOLD-PLATE-1.4174       NO       
      ELASTIC-HOLD-PLATE-1.4175       NO       
      ELASTIC-HOLD-PLATE-1.4176       NO       
      ELASTIC-HOLD-PLATE-1.4177       NO       
      ELASTIC-HOLD-PLATE-1.4178       NO       
      ELASTIC-HOLD-PLATE-1.4179       NO       
      ELASTIC-HOLD-PLATE-1.4180       NO       
      ELASTIC-HOLD-PLATE-1.4181       NO       
      ELASTIC-HOLD-PLATE-1.4182       NO       
      ELASTIC-HOLD-PLATE-1.4183       NO       
      ELASTIC-HOLD-PLATE-1.4184       NO       
      ELASTIC-HOLD-PLATE-1.4185       NO       
      ELASTIC-HOLD-PLATE-1.4186       NO       
      ELASTIC-HOLD-PLATE-1.4187       NO       
      ELASTIC-HOLD-PLATE-1.4188       NO       
      ELASTIC-HOLD-PLATE-1.4189       NO       
      ELASTIC-HOLD-PLATE-1.4190       NO       
      ELASTIC-HOLD-PLATE-1.4191       NO       
      ELASTIC-HOLD-PLATE-1.4192       NO       
      ELASTIC-HOLD-PLATE-1.4193       NO       
      ELASTIC-HOLD-PLATE-1.4194       NO       
      ELASTIC-HOLD-PLATE-1.4195       NO       
      ELASTIC-HOLD-PLATE-1.4196       NO       
      ELASTIC-HOLD-PLATE-1.4197       NO       
      ELASTIC-HOLD-PLATE-1.4198       NO       
      ELASTIC-HOLD-PLATE-1.4199       NO       
      ELASTIC-HOLD-PLATE-1.4200       NO       
      ELASTIC-HOLD-PLATE-1.4201       NO       
      ELASTIC-HOLD-PLATE-1.4202       NO       
      ELASTIC-HOLD-PLATE-1.4203       NO       
      ELASTIC-HOLD-PLATE-1.4204       NO       
      ELASTIC-HOLD-PLATE-1.4205       NO       
      ELASTIC-HOLD-PLATE-1.4206       NO       
      ELASTIC-HOLD-PLATE-1.4207       NO       
      ELASTIC-HOLD-PLATE-1.4208       NO       
      ELASTIC-HOLD-PLATE-1.4209       NO       
      ELASTIC-HOLD-PLATE-1.4210       NO       
      ELASTIC-HOLD-PLATE-1.4211       NO       
      ELASTIC-HOLD-PLATE-1.4212       NO       
      ELASTIC-HOLD-PLATE-1.4213       NO       
      ELASTIC-HOLD-PLATE-1.4214       NO       
      ELASTIC-HOLD-PLATE-1.4215       NO       
      ELASTIC-HOLD-PLATE-1.4216       NO       
      ELASTIC-HOLD-PLATE-1.4217       NO       
      ELASTIC-HOLD-PLATE-1.4218       NO       
      ELASTIC-HOLD-PLATE-1.4219       NO       
      ELASTIC-HOLD-PLATE-1.4220       NO       
      ELASTIC-HOLD-PLATE-1.4221       NO       
      ELASTIC-HOLD-PLATE-1.4222       NO       
      ELASTIC-HOLD-PLATE-1.4223       NO       
      ELASTIC-HOLD-PLATE-1.4224       NO       
      ELASTIC-HOLD-PLATE-1.4225       NO       
      ELASTIC-HOLD-PLATE-1.4226       NO       
      ELASTIC-HOLD-PLATE-1.4227       NO       
      ELASTIC-HOLD-PLATE-1.4228       NO       
      ELASTIC-HOLD-PLATE-1.4229       NO       
      ELASTIC-HOLD-PLATE-1.4230       NO       
      ELASTIC-HOLD-PLATE-1.4231       NO       
      ELASTIC-HOLD-PLATE-1.4232       NO       
      ELASTIC-HOLD-PLATE-1.4233       NO       
      ELASTIC-HOLD-PLATE-1.4234       NO       
      ELASTIC-HOLD-PLATE-1.4235       NO       
      ELASTIC-HOLD-PLATE-1.4236       NO       
      ELASTIC-HOLD-PLATE-1.4237       NO       
      ELASTIC-HOLD-PLATE-1.4238       NO       
      ELASTIC-HOLD-PLATE-1.4239       NO       
      ELASTIC-HOLD-PLATE-1.4240       NO       
      ELASTIC-HOLD-PLATE-1.4241       NO       
      ELASTIC-HOLD-PLATE-1.4242       NO       
      ELASTIC-HOLD-PLATE-1.4243       NO       
      ELASTIC-HOLD-PLATE-1.4244       NO       
      ELASTIC-HOLD-PLATE-1.4245       NO       
      ELASTIC-HOLD-PLATE-1.4246       NO       
      ELASTIC-HOLD-PLATE-1.4247       NO       
      ELASTIC-HOLD-PLATE-1.4248       NO       
      ELASTIC-HOLD-PLATE-1.4249       NO       
      ELASTIC-HOLD-PLATE-1.4250       NO       
      ELASTIC-HOLD-PLATE-1.4251       NO       
      ELASTIC-HOLD-PLATE-1.4252       NO       
      ELASTIC-HOLD-PLATE-1.4253       NO       
      ELASTIC-HOLD-PLATE-1.4254       NO       
      ELASTIC-HOLD-PLATE-1.4255       NO       
      ELASTIC-HOLD-PLATE-1.4256       NO       
      ELASTIC-HOLD-PLATE-1.4257       NO       
      ELASTIC-HOLD-PLATE-1.4258       NO       
      ELASTIC-HOLD-PLATE-1.4259       NO       
      ELASTIC-HOLD-PLATE-1.4260       NO       
      ELASTIC-HOLD-PLATE-1.4261       NO       
      ELASTIC-HOLD-PLATE-1.4262       NO       
      ELASTIC-HOLD-PLATE-1.4263       NO       
      ELASTIC-HOLD-PLATE-1.4264       NO       
      ELASTIC-HOLD-PLATE-1.4265       NO       
      ELASTIC-HOLD-PLATE-1.4266       NO       
      ELASTIC-HOLD-PLATE-1.4267       NO       
      ELASTIC-HOLD-PLATE-1.4268       NO       
      ELASTIC-HOLD-PLATE-1.4269       NO       
      ELASTIC-HOLD-PLATE-1.4270       NO       
      ELASTIC-HOLD-PLATE-1.4271       NO       
      ELASTIC-HOLD-PLATE-1.4272       NO       
      ELASTIC-HOLD-PLATE-1.4273       NO       
      ELASTIC-HOLD-PLATE-1.4274       NO       
      ELASTIC-HOLD-PLATE-1.4275       NO       
      ELASTIC-HOLD-PLATE-1.4276       NO       
      ELASTIC-HOLD-PLATE-1.4277       NO       
      ELASTIC-HOLD-PLATE-1.4278       NO       
      ELASTIC-HOLD-PLATE-1.4279       NO       
      ELASTIC-HOLD-PLATE-1.4280       NO       
      ELASTIC-HOLD-PLATE-1.4281       NO       
      ELASTIC-HOLD-PLATE-1.4282       NO       
      ELASTIC-HOLD-PLATE-1.4283       NO       
      ELASTIC-HOLD-PLATE-1.4284       NO       
      ELASTIC-HOLD-PLATE-1.4285       NO       
      ELASTIC-HOLD-PLATE-1.4286       NO       
      ELASTIC-HOLD-PLATE-1.4287       NO       
      ELASTIC-HOLD-PLATE-1.4288       NO       
      ELASTIC-HOLD-PLATE-1.4289       NO       
      ELASTIC-HOLD-PLATE-1.4290       NO       
      ELASTIC-HOLD-PLATE-1.4291       NO       
      ELASTIC-HOLD-PLATE-1.4292       NO       
      ELASTIC-HOLD-PLATE-1.4293       NO       
      ELASTIC-HOLD-PLATE-1.4294       NO       
      ELASTIC-HOLD-PLATE-1.4295       NO       
      ELASTIC-HOLD-PLATE-1.4296       NO       
      ELASTIC-HOLD-PLATE-1.4297       NO       
      ELASTIC-HOLD-PLATE-1.4298       NO       
      ELASTIC-HOLD-PLATE-1.4299       NO       
      ELASTIC-HOLD-PLATE-1.4300       NO       
      ELASTIC-HOLD-PLATE-1.4301       NO       
      ELASTIC-HOLD-PLATE-1.4302       NO       
      ELASTIC-HOLD-PLATE-1.4303       NO       
      ELASTIC-HOLD-PLATE-1.4304       NO       
      ELASTIC-HOLD-PLATE-1.4305       NO       
      ELASTIC-HOLD-PLATE-1.4306       NO       
      ELASTIC-HOLD-PLATE-1.4307       NO       
      ELASTIC-HOLD-PLATE-1.4308       NO       
      ELASTIC-HOLD-PLATE-1.4309       NO       
      ELASTIC-HOLD-PLATE-1.4310       NO       
      ELASTIC-HOLD-PLATE-1.4311       NO       
      ELASTIC-HOLD-PLATE-1.4312       NO       
      ELASTIC-HOLD-PLATE-1.4313       NO       
      ELASTIC-HOLD-PLATE-1.4314       NO       
      ELASTIC-HOLD-PLATE-1.4315       NO       
      ELASTIC-HOLD-PLATE-1.4316       NO       
      ELASTIC-HOLD-PLATE-1.4317       NO       
      ELASTIC-HOLD-PLATE-1.4318       NO       
      ELASTIC-HOLD-PLATE-1.4319       NO       
      ELASTIC-HOLD-PLATE-1.4320       NO       
      ELASTIC-HOLD-PLATE-1.4321       NO       
      ELASTIC-HOLD-PLATE-1.4322       NO       
      ELASTIC-HOLD-PLATE-1.4323       NO       
      ELASTIC-HOLD-PLATE-1.4324       NO       
      ELASTIC-HOLD-PLATE-1.4325       NO       
      ELASTIC-HOLD-PLATE-1.4326       NO       
      ELASTIC-HOLD-PLATE-1.4327       NO       
      ELASTIC-HOLD-PLATE-1.4328       NO       
      ELASTIC-HOLD-PLATE-1.4329       NO       
      ELASTIC-HOLD-PLATE-1.4330       NO       
      ELASTIC-HOLD-PLATE-1.4331       NO       
      ELASTIC-HOLD-PLATE-1.4332       NO       
      ELASTIC-HOLD-PLATE-1.4333       NO       
      ELASTIC-HOLD-PLATE-1.4334       NO       
      ELASTIC-HOLD-PLATE-1.4335       NO       
      ELASTIC-HOLD-PLATE-1.4336       NO       
      ELASTIC-HOLD-PLATE-1.4337       NO       
      ELASTIC-HOLD-PLATE-1.4338       NO       
      ELASTIC-HOLD-PLATE-1.4339       NO       
      ELASTIC-HOLD-PLATE-1.4340       NO       
      ELASTIC-HOLD-PLATE-1.4341       NO       
      ELASTIC-HOLD-PLATE-1.4342       NO       
      ELASTIC-HOLD-PLATE-1.4343       NO       
      ELASTIC-HOLD-PLATE-1.4344       NO       
      ELASTIC-HOLD-PLATE-1.4345       NO       
      ELASTIC-HOLD-PLATE-1.4346       NO       
      ELASTIC-HOLD-PLATE-1.4347       NO       
      ELASTIC-HOLD-PLATE-1.4348       NO       
      ELASTIC-HOLD-PLATE-1.4349       NO       
      ELASTIC-HOLD-PLATE-1.4350       NO       
      ELASTIC-HOLD-PLATE-1.4351       NO       
      ELASTIC-HOLD-PLATE-1.4352       NO       
      ELASTIC-HOLD-PLATE-1.4353       NO       
      ELASTIC-HOLD-PLATE-1.4354       NO       
      ELASTIC-HOLD-PLATE-1.4355       NO       
      ELASTIC-HOLD-PLATE-1.4356       NO       
      ELASTIC-HOLD-PLATE-1.4357       NO       
      ELASTIC-HOLD-PLATE-1.4358       NO       
      ELASTIC-HOLD-PLATE-1.4359       NO       
      ELASTIC-HOLD-PLATE-1.4360       NO       
      ELASTIC-HOLD-PLATE-1.4361       NO       
      ELASTIC-HOLD-PLATE-1.4362       NO       
      ELASTIC-HOLD-PLATE-1.4363       NO       
      ELASTIC-HOLD-PLATE-1.4364       NO       
      ELASTIC-HOLD-PLATE-1.4365       NO       
      ELASTIC-HOLD-PLATE-1.4366       NO       
      ELASTIC-HOLD-PLATE-1.4367       NO       
      ELASTIC-HOLD-PLATE-1.4368       NO       
      ELASTIC-HOLD-PLATE-1.4369       NO       
      ELASTIC-HOLD-PLATE-1.4370       NO       
      ELASTIC-HOLD-PLATE-1.4371       NO       
      ELASTIC-HOLD-PLATE-1.4372       NO       
      ELASTIC-HOLD-PLATE-1.4373       NO       
      ELASTIC-HOLD-PLATE-1.4374       NO       
      ELASTIC-HOLD-PLATE-1.4375       NO       
      ELASTIC-HOLD-PLATE-1.4376       NO       
      ELASTIC-HOLD-PLATE-1.4377       NO       
      ELASTIC-HOLD-PLATE-1.4378       NO       
  
  
  *Step, name=Step-1, nlgeom=YES, inc=10000000
  *output, field
  *output, history, variable=PRESELECT
  *Step, name=Step-1, nlgeom=YES, inc=10000000
  *Step, name=Step-1, nlgeom=YES, inc=10000000
  *coupledtemperature-displacement, creep=NONE, deltmx=10
  *boundary
  *boundary
  *boundary
  *dsload
  *output, field
  *nodeoutput
  *elementoutput, directions=YES
  *output, history, variable=PRESELECT
  *endstep
  *Step, name=Step-1, nlgeom=YES, inc=10000000
  *coupledtemperature-displacement, creep=NONE, deltmx=10
  *boundary
  *boundary
  *boundary
  *endstep

     - (RAMP) OR (STEP) - INDICATE USE OF DEFAULT AMPLITUDES ASSOCIATED WITH THE STEP



                            P R O B L E M   S I Z E


          NUMBER OF ELEMENTS IS                                  4378
          NUMBER OF NODES IS                                     9060
          NUMBER OF NODES DEFINED BY THE USER                    9060
          TOTAL NUMBER OF VARIABLES IN THE MODEL                36240
          (DEGREES OF FREEDOM PLUS MAX NO. OF ANY LAGRANGE MULTIPLIER
           VARIABLES. INCLUDE *PRINT,SOLVE=YES TO GET THE ACTUAL NUMBER.)



                              END OF USER INPUT PROCESSING



     JOB TIME SUMMARY
       USER TIME (SEC)      =     0.40    
       SYSTEM TIME (SEC)    =      0.0    
       TOTAL CPU TIME (SEC) =     0.40    
       WALLCLOCK TIME (SEC) =            1
1

   Abaqus 2023.HF4                                  Date 07-Jul-2024   Time 19:12:11
   For use by AALTO UNIVERSITY under license from Dassault Systemes or its subsidiary.

                                                                                               STEP    1  INCREMENT    1
                                                                                          TIME COMPLETED IN THIS STEP   0.00    


                        S T E P       1     C O U P L E D - T E M P E R A T U R E - D I S P L A C E M E N T   A N A L Y S I S


                                                                                          

     AUTOMATIC TIME CONTROL WITH -
          A SUGGESTED INITIAL TIME INCREMENT OF                 500.    
          AND A TOTAL TIME PERIOD OF                           1.000E+10
          THE MINIMUM TIME INCREMENT ALLOWED IS                 100.    
          THE MAXIMUM TIME INCREMENT ALLOWED IS                1.000E+03

          CREEP AND SWELLING EFFECTS ARE OMITTED IN THIS STEP

     THE SIZE OF THE TIME INCREMENT IS CONTROLLED BY -
          THE TEMPERATURE CHANGE PER INCREMENT NOT EXCEEDING            10.0    
          THE RATE DEPENDENCY WILL BE CONSIDERED IN THIS STEP

          CREEP AND SWELLING EFFECTS WILL BE IGNORED.

          LARGE DISPLACEMENT THEORY WILL BE USED

          UNSYMMETRIC MATRIX STORAGE AND SOLUTION WILL BE USED
  
                   M E M O R Y   E S T I M A T E
  
 PROCESS      FLOATING PT       MINIMUM MEMORY        MEMORY TO
              OPERATIONS           REQUIRED          MINIMIZE I/O
             PER ITERATION           (MB)               (MB)
  
     1          5.17E+09               27                204
  
 NOTE:
      (1) SINCE ABAQUS DOES NOT PRE-ALLOCATE MEMORY AND ONLY ALLOCATES MEMORY AS NEEDED DURING THE ANALYSIS,
          THE MEMORY REQUIREMENT PRINTED HERE CAN ONLY BE VIEWED AS A GENERAL GUIDELINE BASED ON THE BEST
          KNOWLEDGE AVAILABLE AT THE BEGINNING OF A STEP BEFORE THE SOLUTION PROCESS HAS BEGUN.
      (2) THE ESTIMATE IS NORMALLY UPDATED AT THE BEGINNING OF EVERY STEP. IT IS THE MAXIMUM VALUE OF THE
          ESTIMATE FROM THE CURRENT STEP TO THE LAST STEP OF THE ANALYSIS, WITH UNSYMMETRIC SOLUTION TAKEN
          INTO ACCOUNT IF APPLICABLE. 
      (3) SINCE THE ESTIMATE IS BASED ON THE ACTIVE DEGREES OF FREEDOM IN THE FIRST ITERATION OF THE 
          CURRENT STEP, THE MEMORY ESTIMATE MIGHT BE SIGNIFICANTLY DIFFERENT THAN ACTUAL USAGE FOR 
          PROBLEMS WITH SUBSTANTIAL CHANGES IN ACTIVE DEGREES OF FREEDOM BETWEEN STEPS (OR EVEN WITHIN
          THE SAME STEP). EXAMPLES ARE: PROBLEMS WITH SIGNIFICANT CONTACT CHANGES, PROBLEMS WITH MODEL
          CHANGE, PROBLEMS WITH BOTH STATIC STEP AND STEADY STATE DYNAMIC PROCEDURES WHERE ACOUSTIC 
          ELEMENTS WILL ONLY BE ACTIVATED IN THE STEADY STATE DYNAMIC STEPS.
      (4) FOR MULTI-PROCESS EXECUTION, THE ESTIMATED VALUE OF FLOATING POINT OPERATIONS FOR EACH PROCESS
          IS BASED ON AN INITIAL SCHEDULING OF OPERATIONS AND MIGHT NOT REFLECT THE ACTUAL FLOATING 
          POINT OPERATIONS COMPLETED ON EACH PROCESS. OPERATIONS ARE DYNAMICALLY BALANCED DURING EXECUTION, 
          SO THE ACTUAL BALANCE OF OPERATIONS BETWEEN PROCESSES IS EXPECTED TO BE BETTER THAN THE ESTIMATE
          PRINTED HERE.
      (5) THE UPPER LIMIT OF MEMORY THAT CAN BE ALLOCATED BY ABAQUS WILL IN GENERAL DEPEND ON THE VALUE OF
          THE "MEMORY" PARAMETER AND THE AMOUNT OF PHYSICAL MEMORY AVAILABLE ON THE MACHINE. PLEASE SEE
          THE "ABAQUS ANALYSIS USER'S MANUAL" FOR MORE DETAILS. THE ACTUAL USAGE OF MEMORY AND OF DISK
          SPACE FOR SCRATCH DATA WILL DEPEND ON THIS UPPER LIMIT AS WELL AS THE MEMORY REQUIRED TO MINIMIZE
          I/O. IF THE MEMORY UPPER LIMIT IS GREATER THAN THE MEMORY REQUIRED TO MINIMIZE I/O, THEN THE ACTUAL
          MEMORY USAGE WILL BE CLOSE TO THE ESTIMATED "MEMORY TO MINIMIZE I/O" VALUE, AND THE SCRATCH DISK
          USAGE WILL BE CLOSE-TO-ZERO; OTHERWISE, THE ACTUAL MEMORY USED WILL BE CLOSE TO THE PREVIOUSLY
          MENTIONED MEMORY LIMIT, AND THE SCRATCH DISK USAGE WILL BE ROUGHLY PROPORTIONAL TO THE DIFFERENCE
          BETWEEN THE ESTIMATED "MEMORY TO MINIMIZE I/O" AND THE MEMORY UPPER LIMIT. HOWEVER ACCURATE
          ESTIMATE OF THE SCRATCH DISK SPACE IS NOT POSSIBLE.
      (6) USING "*RESTART, WRITE" CAN GENERATE A LARGE AMOUNT OF DATA WRITTEN IN THE WORK DIRECTORY.


          THE ANALYSIS IS ENDED BECAUSE OF THE PROBLEMS ENCOUNTERED
          LOOK AT THE MSG FILE FOR THE CAUSE OF THE TERMINATION



                              ANALYSIS IS ENDED
                              WITH      1 ERROR MESSAGES ON THE MSG FILE
                              AND       3 WARNING MESSAGES ON THE DAT FILE
                              AND   81538 WARNING MESSAGES ON THE MSG FILE
                                    81530 WARNINGS ARE FOR NUMERICAL PROBLEMS



     JOB TIME SUMMARY
       USER TIME (SEC)      =      9.2    
       SYSTEM TIME (SEC)    =      1.0    
       TOTAL CPU TIME (SEC) =      10.    
       WALLCLOCK TIME (SEC) =            4
