*HEADING
Dodge caravan bumper analysis
units: N, mm, MPa, tonne, s
*Part, name=BUMPER
*NODE
      1,     -67.9403,   37.9842987,   553.924011
      2,  -67.3702011,   25.2422009,   554.132019
      3,  -66.8000031,         12.5,   554.340027
      4,  -64.8799973,   38.1399994,   540.059998
      5,  -64.4700012,   25.9200001,   539.780029
      6,  -64.0599976,   13.6999998,        539.5
      7,  -66.3799973,   88.6200027,   540.640015
      8,  -65.8799973,   71.7932968,   540.447021
      9,  -65.3799973,   54.9667015,   540.252991
     10,  -68.5400009,   87.8600006,    556.02002
     11,  -68.3401031,   71.2348022,   555.320984
     12,  -68.1401978,   54.6096001,   554.622009
     13,  -69.3600006,   118.199997,   556.179993
     14,  -68.9499969,   103.029999,   556.099976
     15,  -67.2200012,   118.739998,   541.820007
     16,  -66.8000031,       103.68,    541.22998
     17,  -68.3000031,   139.619995,   542.080017
     18,  -70.3000031,   139.619995,   556.340027
     19,  -66.1200027,   13.7799997,   525.900024
     20,  -65.8499985,   26.0200005,   526.400024
** ... 13596 like lines cut
**
 131994,  -428.200012,   558.400024,   457.450012
 131995,  -417.309998,   559.031006,   457.036499
 131996,  -428.200012,  -558.400024,   457.450012
 131997,  -417.309998,  -559.031006,   457.036499
**
** f_ch_rad_supp_low_bot
**
*ELEMENT, TYPE=S3RS, ELSET=radiator_support_bottom
    112408,     112486,     112487,     112488
    112421,     112499,     112500,     112501
    112436,     112510,     112413,     112511
    112635,     112712,     112713,     112718
    112636,     112681,     112684,     112682
    112705,     112769,     112794,     112795
    113072,     113234,     113236,     113235
    113085,     113247,     113249,     113248
    113100,     113258,     113259,     113174
    113303,     113446,     113472,     113471
    113353,     112087,     112089,     113509
    113354,     112196,     113508,     112197
    113375,     112958,     112959,     113074
    113377,     112873,     113075,     112875
    113390,     112958,     113074,     113522
    113418,     112793,     113540,     113541
    113447,     113470,     113557,     113556
*ELEMENT, TYPE=S4RS, ELSET=radiator_support_bottom
    112001,     112001,     112002,     112005,     112004
    112002,     112002,     112003,     112006,     112005
    112003,     112007,     112009,     112010,     112008
    112004,     112008,     112010,     112001,     112004
    112005,     112011,     112012,     112014,     112013
    112006,     112012,     112009,     112007,     112014
    112007,     112015,     112018,     112019,     112016
    112008,     112016,     112019,     112020,     112017
    112009,     112018,     112004,     112005,     112019
    112010,     112019,     112005,     112006,     112020
    112011,     112021,     112015,     112016,     112022
    112012,     112022,     112016,     112017,     112023
    112013,     112024,     112021,     112022,     112025
    112014,     112025,     112022,     112023,     112026
    112015,     112024,     112025,     112031,     112027
    112016,     112027,     112031,     112032,     112028
    112017,     112028,     112032,     112033,     112029
    112018,     112029,     112033,     112034,     112030
    112019,     112025,     112026,     112035,     112031
    112020,     112031,     112035,     112036,     112032
** ... 1416 like lines cut
*SHELL SECTION, ELSET=radiator_support_bottom, MATERIAL=Steel1, CONTROLS=ShellControls
1.87000e+000,     3
**
** f_ch_rad_supp_low_reinf
**
*ELEMENT, TYPE=S4RS, ELSET=radiator_support_reinf
    113701,     113738,     113739,     113743,     113742
    113702,     113734,     113735,     113739,     113738
    113703,     113739,     113740,     113744,     113743
    113704,     113735,     113736,     113740,     113739
    113705,     113740,     113741,     113745,     113744
    113706,     113736,     113737,     113741,     113740
    113707,     113741,     113710,     113711,     113745
    113708,     113737,     113709,     113710,     113741
    113709,     113732,     113736,     113737,     113733
    113710,     113730,     113732,     113733,     113731
    113711,     113727,     113730,     113731,     113723
    113712,     113722,     113726,     113727,     113723
    113713,     113721,     113725,     113726,     113722
    113714,     113720,     113724,     113725,     113721
    113715,     113733,     113737,     113709,     113708
    113716,     113731,     113733,     113708,     113707
    113717,     113723,     113731,     113707,     113706
    113718,     113705,     113722,     113723,     113706
    113719,     113704,     113721,     113722,     113705
    113720,     113703,     113720,     113721,     113704
** ... 80 like lines cut
*SHELL SECTION, ELSET=radiator_support_reinf, MATERIAL=Steel1, CONTROLS=ShellControls
1.10000e+000,     3
**
** f_ch_rad_supp_low_top
**
*ELEMENT, TYPE=S3RS, ELSET=radiator_support_top
    114103,     114119,     114135,     114136
    114104,     114135,     114099,     114137
    114105,     114099,     114092,     114137
    114106,     114092,     114045,     114138
    114107,     114045,     114036,     114138
    114108,     114036,     114031,     114139
    114109,     114031,     114112,     114139
    114110,     114112,     114119,     114136
    114111,     114056,     114095,     114140
    114118,     114096,     114144,     114145
    114119,     114144,     114080,     114146
    114120,     114080,     114077,     114146
    114121,     114077,     114070,     114147
    114122,     114070,     114061,     114147
    114123,     114061,     114056,     114140
    114124,     114096,     114145,     114095
    114141,     114161,     114168,     114162
    114142,     114162,     114169,     114010
    114143,     114010,     114169,     114011
    114144,     114161,     114167,     114168
** ... 36 like lines cut
*ELEMENT, TYPE=S4RS, ELSET=radiator_support_top
    114001,     114001,     114002,     114007,     114006
    114002,     114002,     114003,     114008,     114007
    114003,     114003,     114004,     114009,     114008
    114004,     114004,     114005,     114010,     114009
    114005,     114011,     114012,     114009,     114010
    114006,     114012,     114013,     114008,     114009
    114007,     114013,     114014,     114007,     114008
    114008,     114014,     114015,     114006,     114007
    114009,     114011,     114016,     114017,     114012
    114010,     114012,     114017,     114018,     114013
    114011,     114013,     114018,     114019,     114014
    114012,     114014,     114019,     114020,     114015
    114013,     114016,     114021,     114022,     114017
    114014,     114017,     114022,     114023,     114018
    114015,     114018,     114023,     114024,     114019
    114016,     114019,     114024,     114025,     114020
    114017,     114021,     114026,     114027,     114022
    114018,     114022,     114027,     114028,     114023
    114019,     114023,     114028,     114029,     114024
    114020,     114024,     114029,     114030,     114025
** ... 492 like lines cut
*SHELL SECTION, ELSET=radiator_support_top, MATERIAL=Steel1, CONTROLS=ShellControls
1.88000e+000,     3
**
** f_ch_rails_ft_engine
**
*SHELL SECTION, ELSET=rails_inner, MATERIAL=Steel2, CONTROLS=ShellControls
2.65000e+000,     3
**
** f_ch_rails_ft_o
**
*SHELL SECTION, ELSET=rails_outer, MATERIAL=Steel2, CONTROLS=ShellControls
2.64000e+000,     3
*Element, type=S4RS
117225, 117316, 117314, 117319, 117317
117226, 117317, 117319, 117320, 117318
117227, 117314, 117312, 117321, 117319
117228, 117319, 117321, 117322, 117320
117229, 117322, 117323, 117325, 117320
117230, 117323, 117324, 117326, 117325
117231, 117320, 117325, 117327, 117318
117232, 117325, 117326, 117328, 117327
117233, 117328, 117326, 117331, 117329
117234, 117329, 117331, 117332, 117330
117235, 117326, 117324, 117333, 117331
117236, 117331, 117333, 117334, 117332
117237, 117334, 117335, 117337, 117332
117238, 117335, 117336, 117338, 117337
117239, 117332, 117337, 117339, 117330
117240, 117337, 117338, 117340, 117339
117247, 117350, 117353, 117354, 117352
117248, 117353, 117355, 117356, 117354
117249, 117356, 117355, 117359, 117357
117250, 117357, 117359, 117360, 117358
** ... 1467 like lines cut
**
131871, 128737, 128741, 128813, 128745
131872, 128741, 128731, 128734, 128813
131873, 128933, 128934, 131995, 131994
131874, 128934, 128935, 128936, 131995
131875, 131995, 128936, 128921, 128918
131876, 131995, 128918, 128911, 131994
131877, 131904, 131905, 131906, 131997
131878, 131903, 131904, 131997, 131996
131879, 131997, 131906, 131891, 131888
131880, 131996, 131997, 131888, 131881
131881, 131707, 131711, 131783, 131715
131882, 131711, 131701, 131704, 131783
*Element, type=S3RS
117962, 118147, 118054, 118148
117998, 118169, 118168, 118167
118000, 118170, 118167, 118166
118011, 118178, 118174, 118179
118014, 118175, 118179, 118174
118015, 118176, 118174, 118180
118105, 118265, 118302, 118294
118118, 118189, 118304, 118303
118119, 118303, 118305, 118189
118120, 118207, 118306, 118307
118121, 118308, 118207, 118307
118122, 118309, 118217, 118310
118123, 118217, 118309, 118311
118124, 118312, 118243, 118313
118125, 118314, 118243, 118312
118166, 118308, 118307, 118341
118168, 118306, 118328, 118307
118170, 118207, 118198, 118306
118173, 118308, 118208, 118207
118174, 118346, 118312, 118313
** ... 43 like lines cut
**128827, 128918, 128936, 128921
**128828, 128936, 128934, 128935
128898, 128869, 128862, 129017
128911, 129022, 128825, 128972
**131784, 131888, 131906, 131891
**131785, 131906, 131904, 131905
131855, 131839, 131832, 131987
131868, 131992, 131795, 131942
*Elset, elset=rails_inner
 117225, 117226, 117227, 117228, 117229, 117230, 117231, 117232, 117233, 117234, 117235, 117236, 117237, 117238, 117239, 117240
 117247, 117248, 117249, 117250, 117251, 117252, 117253, 117254, 117399, 117400, 117401, 117402, 117403, 117404, 117405, 117406
 117407, 117408, 117409, 117410, 117411, 117412, 117413, 117414, 117415, 117416, 117417, 117418, 117419, 117420, 117421, 117422
 117423, 117424, 117425, 117426, 117427, 117428, 117429, 117430, 117431, 117432, 117433, 117434, 117435, 117436, 117437, 117438
 117439, 117440, 117441, 117442, 117443, 117444, 117445, 117446, 117447, 117448, 117449, 117450, 117451, 117452, 117453, 117454
 117455, 117456, 117457, 117458, 117459, 117460, 117461, 117462, 117463, 117464, 117465, 117466, 117467, 117468, 117469, 117470
 117471, 117472, 117821, 117822, 117823, 117824, 117825, 117826, 117827, 117828, 117829, 117830, 117831, 117832, 117833, 117834
 117835, 117836, 117837, 117838, 117839, 117840, 117841, 117842, 117843, 117844, 117845, 117846, 117847, 117848, 117849, 117850
 117851, 117852, 117853, 117854, 117855, 117856, 117857, 117858, 117859, 117860, 117861, 117862, 117863, 117864, 117865, 117866
 117867, 117868, 117869, 117870, 117871, 117872, 117873, 117874, 117875, 117876, 117877, 117878, 117879, 117880, 117881, 117882
 117883, 117884, 117885, 117886, 117887, 117888, 117889, 117890, 117905, 117906, 117907, 117908, 117909, 117910, 117911, 117912
 117913, 117914, 117915, 117916, 117919, 117920, 117925, 117926, 117927, 117928, 117929, 117930, 117931, 117932, 117933, 117934
 117935, 117936, 117937, 117938, 117939, 117940, 117941, 117942, 117943, 117944, 117945, 117946, 117947, 117948, 117949, 117950
 117951, 117952, 117953, 117954, 117955, 117956, 117957, 117958, 117959, 117960, 117961, 117962, 117963, 117964, 117965, 117966
 117967, 117968, 117969, 117970, 117975, 117976, 117977, 117978, 117994, 117995, 117996, 117997, 117998, 117999, 118000, 118001
 118002, 118003, 118004, 118005, 118006, 118007, 118008, 118009, 118010, 118011, 118012, 118013, 118014, 118015, 118016, 118017
 118018, 118019, 118020, 118021, 118022, 118023, 118024, 118025, 118026, 118027, 118028, 118029, 118030, 118031, 118032, 118033
 118034, 118035, 118036, 118037, 118038, 118039, 118040, 118041, 118042, 118043, 118044, 118045, 118046, 118047, 118048, 118049
 118050, 118051, 118052, 118053, 118054, 118055, 118056, 118057, 118058, 118059, 118060, 118061, 118062, 118063, 118064, 118065
 118066, 118067, 118068, 118069, 118070, 118071, 118072, 118073, 118074, 118075, 118076, 118077, 118078, 118079, 118080, 118081
** ... 48 like lines cut
*Elset, elset=rails_outer
 128551, 128552, 128553, 128554, 128555, 128556, 128557, 128558, 128559, 128560, 128561, 128562, 128571, 128572, 128573, 128574
 128575, 128576, 128577, 128578, 128579, 128580, 128581, 128582, 128583, 128584, 128585, 128586, 128587, 128588, 128589, 128590
 128591, 128592, 128593, 128594, 128595, 128596, 128597, 128598, 128629, 128630, 128631, 128632, 128633, 128634, 128635, 128636
 128637, 128638, 128639, 128640, 128641, 128642, 128643, 128644, 128645, 128646, 128647, 128648, 128649, 128650, 128651, 128652
 128653, 128654, 128655, 128656, 128657, 128658, 128659, 128660, 128665, 128666, 128667, 128668, 128673, 128674, 128675, 128676
 128677, 128678, 128679, 128680, 128712, 128713, 128714, 128715, 128716, 128717, 128718, 128719, 128720, 128721, 128722, 128723
 128724, 128725, 128726, 128727, 128728, 128729, 128730, 128731, 128732, 128733, 128734, 128735, 128736, 128737, 128738, 128739
 128740, 128741, 128742, 128743, 128744, 128745, 128746, 128747, 128748, 128749, 128750, 128751, 128752, 128753, 128754, 128755
 128756, 128761, 128762, 128763, 128764, 128765, 128766, 128767, 128768, 128769, 128770, 128771, 128772, 128779, 128780, 128781
 128782, 128783, 128784, 128791, 128792, 128793, 128794, 128795, 128796, 128797, 128798, 128799, 128800, 128801, 128802, 128803
 128804, 128805, 128806, 128807, 128808, 128811, 128812, 128813, 128814, 128815, 128816, 128817, 128818, 128851
 128852, 128853, 128854, 128855, 128856, 128857, 128858, 128859, 128860, 128861, 128862, 128863, 128864, 128865, 128866, 128867
 128868, 128869, 128870, 128871, 128872, 128873, 128874, 128875, 128876, 128877, 128878, 128879, 128880, 128881, 128882, 128883
 128884, 128885, 128886, 128887, 128888, 128889, 128890, 128891, 128892, 128893, 128894, 128895, 128896, 128897, 128898, 128899
 128900, 128901, 128902, 128903, 128904, 128905, 128906, 128907, 128908, 128909, 128910, 128911, 131508, 131509, 131510, 131511
 131512, 131513, 131514, 131515, 131516, 131517, 131518, 131519, 131528, 131529, 131530, 131531, 131532, 131533, 131534, 131535
 131536, 131537, 131538, 131539, 131540, 131541, 131542, 131543, 131544, 131545, 131546, 131547, 131548, 131549, 131550, 131551
 131552, 131553, 131554, 131555, 131586, 131587, 131588, 131589, 131590, 131591, 131592, 131593, 131594, 131595, 131596, 131597
 131598, 131599, 131600, 131601, 131602, 131603, 131604, 131605, 131606, 131607, 131608, 131609, 131610, 131611, 131612, 131613
 131614, 131615, 131616, 131617, 131622, 131623, 131624, 131625, 131630, 131631, 131632, 131633, 131634, 131635, 131636, 131637
** ... 11 like lines cut
*Nset, nset=end_nodes
 117312, 117314, 117316, 117350, 117352, 117471, 117472, 117473, 118025, 118028, 118031, 118054, 118057, 118094, 118096, 118156
 118409, 118411, 118412, 118414, 118416, 118417, 118456, 118457, 118458, 119355, 119357, 119359, 119475, 119476, 119477, 119478
 119479, 119566, 120123, 120125, 120127, 120130, 120133, 120136, 120174, 120176, 120179, 120207, 120209, 120510, 120512, 120521
 120522, 120564, 120565, 128646, 128648, 128650, 128692, 128693, 128694, 128695, 128696, 128777, 128778, 128872, 128875, 128878
 128911, 128913, 128915, 128933, 131616, 131618, 131620, 131662, 131663, 131664, 131665, 131666, 131747, 131748, 131842, 131845
 131848, 131881, 131883, 131885, 131903
**
** f_ob_bumper_ft_beam
**
*ELEMENT, TYPE=S3RS, ELSET=bumper_beam
       308,        171,        345,        160
       309,        345,        344,        160
       317,         65,         66,        350
       318,        350,         66,        327
       319,        328,         47,        351
       320,        351,         47,         63
       321,        173,        189,        352
       322,        352,        189,        343
       718,        785,        777,        784
       719,        784,        777,        664
       741,        741,        742,        806
       742,        806,        742,        469
       743,        431,        721,        807
       744,        807,        721,        722
       862,        928,        929,        927
      1064,       1187,       1153,       1154
      1065,       1154,       1019,       1187
      1066,       1029,       1187,       1019
      1071,        955,        953,       1190
      1073,       1189,       1191,       1151
** ... 76 like lines cut
*ELEMENT, TYPE=S4RS, ELSET=bumper_beam
         1,          1,          2,          5,          4
         2,          2,          3,          6,          5
         3,          7,         10,         11,          8
         4,          8,         11,         12,          9
         5,          9,         12,          1,          4
         6,         13,         14,         16,         15
         7,         14,         10,          7,         16
         8,          6,         19,         20,          5
         9,          5,         20,         21,          4
        10,         21,         22,          9,          4
        11,         22,         23,          8,          9
        12,         23,         24,          7,          8
        13,          7,         24,         25,         16
        14,         16,         25,         26,         15
        15,         26,         25,         30,         28
        16,         25,         24,         31,         30
        17,         31,         24,         23,         32
        18,         32,         23,         22,         33
        19,         33,         22,         21,         34
        20,         21,         20,         35,         34
** ... 2770 like lines cut
*SHELL SECTION, ELSET=bumper_beam, MATERIAL=Steel3, CONTROLS=ShellControls
2.04000e+000,     3
**
** f_ob_bumper_ft_beam_reinf
**
*ELEMENT, TYPE=S4RS, ELSET=bumper_beam_reinf
      3001,       3001,       3002,       3005,       3004
      3002,       3002,       3003,       3006,       3005
      3003,       3004,       3005,       3008,       3007
      3004,       3005,       3006,       3009,       3008
      3005,       3007,       3008,       3011,       3010
      3006,       3008,       3009,       3012,       3011
      3007,       3013,       3014,       3027,       3026
      3008,       3014,       3015,       3028,       3027
      3009,       3015,       3016,       3029,       3028
      3010,       3016,       3017,       3030,       3029
      3011,       3017,       3018,       3031,       3030
      3012,       3018,       3019,       3032,       3031
      3013,       3019,       3020,       3033,       3032
      3014,       3020,       3021,       3034,       3033
      3015,       3021,       3022,       3035,       3034
      3016,       3022,       3023,       3036,       3035
      3017,       3023,       3024,       3037,       3036
      3018,       3024,       3025,       3038,       3037
      3019,       3025,       3003,       3002,       3038
      3020,       3026,       3027,       3040,       3039
** ... 188 like lines cut
*SHELL SECTION, ELSET=bumper_beam_reinf, MATERIAL=Steel3, CONTROLS=ShellControls
2.77000e+000,     3
**
** f_ob_bumper_ft_fascia
**
*ELEMENT, TYPE=S3RS, ELSET=bumper_cover
      4278,       4325,       4326,       4324
      4324,       4374,       4377,       4376
      4343,       4399,       4400,       4393
      4349,       4402,       4404,       4403
      4360,       4392,       4391,       4415
      4361,       4393,       4415,       4391
      4362,       4415,       4393,       4394
      4367,       4385,       4396,       4386
      4368,       4418,       4386,       4396
      4369,       4396,       4395,       4418
      4370,       4386,       4418,       4421
      4513,       4428,       4447,       4569
      4514,       4450,       4569,       4447
      4515,       4569,       4450,       4449
      4534,       4433,       4595,       4435
      4535,       4578,       4435,       4595
      4536,       4595,       4577,       4578
      4548,       4603,       4570,       4564
      4549,       4599,       4603,       4587
      4574,       4654,       4656,       4655
** ... 414 like lines cut
*ELEMENT, TYPE=S4RS, ELSET=bumper_cover
      4001,       4001,       4003,       4004,       4002
      4002,       4003,       4005,       4006,       4004
      4003,       4005,       4007,       4008,       4006
      4004,       4007,       4009,       4010,       4008
      4005,       4011,       4013,       4014,       4012
      4006,       4013,       4015,       4016,       4014
      4007,       4015,       4017,       4018,       4016
      4008,       4017,       4001,       4002,       4018
      4009,       4011,       4019,       4020,       4013
      4010,       4013,       4020,       4021,       4015
      4011,       4015,       4021,       4022,       4017
      4012,       4017,       4022,       4023,       4001
      4013,       4019,       4024,       4025,       4020
      4014,       4020,       4025,       4026,       4021
      4015,       4021,       4026,       4027,       4022
      4016,       4022,       4027,       4028,       4023
      4017,       4024,       4029,       4030,       4025
      4018,       4025,       4030,       4031,       4026
      4019,       4026,       4031,       4032,       4027
      4020,       4027,       4032,       4033,       4028
** ... 3972 like lines cut
*SHELL SECTION, ELSET=bumper_cover, MATERIAL=Plastic, CONTROLS=ShellControls
3.55000e+000,     3
**
** f_ob_bumper_ft_foam
**
*ELEMENT, TYPE=C3D8R, ELSET=bumper_foam
      9001,       9013,       9014,       9007,       9006,       9445,       9448,       9447,       9446
      9002,       9445,       9448,       9447,       9446,       9432,       9431,       9438,       9439
      9003,       9012,       9013,       9006,       9005,       9449,       9445,       9446,       9450
      9004,       9449,       9445,       9446,       9450,       9433,       9432,       9439,       9440
      9005,       9011,       9012,       9005,       9004,       9451,       9449,       9450,       9452
      9006,       9451,       9449,       9450,       9452,       9434,       9433,       9440,       9441
      9007,       9010,       9011,       9004,       9003,       9453,       9451,       9452,       9454
      9008,       9453,       9451,       9452,       9454,       9435,       9434,       9441,       9442
      9009,       9009,       9010,       9003,       9002,       9455,       9453,       9454,       9456
      9010,       9455,       9453,       9454,       9456,       9436,       9435,       9442,       9443
      9011,       9008,       9009,       9002,       9001,       9457,       9455,       9456,       9458
      9012,       9457,       9455,       9456,       9458,       9437,       9436,       9443,       9444
      9013,       9432,       9431,       9424,       9425,       9445,       9448,       9459,       9460
      9014,       9445,       9448,       9459,       9460,       9013,       9014,       9021,       9020
      9015,       9019,       9020,       9013,       9012,       9461,       9460,       9445,       9449
      9016,       9461,       9460,       9445,       9449,       9426,       9425,       9432,       9433
      9017,       9018,       9019,       9012,       9011,       9462,       9461,       9449,       9451
      9018,       9462,       9461,       9449,       9451,       9427,       9426,       9433,       9434
      9019,       9017,       9018,       9011,       9010,       9463,       9462,       9451,       9453
      9020,       9463,       9462,       9451,       9453,       9428,       9427,       9434,       9435
** ... 628 like lines cut
*SOLID SECTION, ELSET=bumper_foam, MATERIAL=Foam, CONTROLS=FoamControls
**
** f_ob_bumper_ft_mounting_brckt_l
**
*ELEMENT, TYPE=S3RS, ELSET=bumper_mounting_bracket_left
     15142,      15182,      15054,      15074
     15143,      15182,      15176,      15137
     15144,      15137,      15138,      15183
     15145,      15139,      15140,      15184
     15146,      15168,      15169,      15186
     15147,      15186,      15023,      15022
     15148,      15184,      15019,      15061
     15149,      15165,      15185,      15140
     15157,      15140,      15185,      15190
     15158,      15190,      15185,      15019
     15159,      15140,      15190,      15184
     15160,      15190,      15019,      15184
     15161,      15054,      15191,      15183
     15162,      15191,      15137,      15183
     15163,      15054,      15182,      15191
     15164,      15191,      15182,      15137
     15165,      15074,      15192,      15182
     15166,      15192,      15176,      15182
     15167,      15074,      15181,      15192
     15168,      15192,      15181,      15176
** ... 9 like lines cut
*ELEMENT, TYPE=S4RS, ELSET=bumper_mounting_bracket_left
     15001,      15001,      15004,      15005,      15002
     15002,      15002,      15005,      15006,      15003
     15003,      15007,      15004,      15001,      15008
     15004,      15009,      15010,      15007,      15008
     15005,      15006,      15011,      15015,      15003
     15006,      15011,      15012,      15016,      15015
     15007,      15012,      15013,      15017,      15016
     15008,      15013,      15014,      15018,      15017
     15009,      15019,      15020,      15025,      15024
     15010,      15020,      15021,      15026,      15025
     15011,      15021,      15022,      15027,      15026
     15012,      15022,      15023,      15028,      15027
     15013,      15024,      15025,      15030,      15029
     15014,      15025,      15026,      15031,      15030
     15015,      15026,      15027,      15032,      15031
     15016,      15027,      15028,      15033,      15032
     15017,      15029,      15030,      15035,      15034
     15018,      15030,      15031,      15036,      15035
     15019,      15031,      15032,      15037,      15036
     15020,      15032,      15033,      15038,      15037
** ... 143 like lines cut
*SHELL SECTION, ELSET=bumper_mounting_bracket_left, MATERIAL=Steel3, CONTROLS=ShellControls
2.06000e+000,     3
**
** f_ob_bumper_ft_mounting_brckt_r
**
*ELEMENT, TYPE=S3RS, ELSET=bumper_mounting_bracket_right
     15642,      15682,      15574,      15554
     15643,      15682,      15637,      15676
     15644,      15637,      15683,      15638
     15645,      15639,      15684,      15640
     15646,      15668,      15686,      15669
     15647,      15686,      15522,      15523
     15648,      15684,      15561,      15519
     15649,      15665,      15640,      15685
     15657,      15640,      15690,      15685
     15658,      15690,      15519,      15685
     15659,      15640,      15684,      15690
     15660,      15690,      15684,      15519
     15661,      15554,      15683,      15691
     15662,      15691,      15683,      15637
     15663,      15554,      15691,      15682
     15664,      15691,      15637,      15682
     15665,      15574,      15682,      15692
     15666,      15692,      15682,      15676
     15667,      15574,      15692,      15681
     15668,      15692,      15676,      15681
** ... 9 like lines cut
*ELEMENT, TYPE=S4RS, ELSET=bumper_mounting_bracket_right
     15501,      15501,      15502,      15505,      15504
     15502,      15502,      15503,      15506,      15505
     15503,      15507,      15508,      15501,      15504
     15504,      15509,      15508,      15507,      15510
     15505,      15506,      15503,      15515,      15511
     15506,      15511,      15515,      15516,      15512
     15507,      15512,      15516,      15517,      15513
     15508,      15513,      15517,      15518,      15514
     15509,      15519,      15524,      15525,      15520
     15510,      15520,      15525,      15526,      15521
     15511,      15521,      15526,      15527,      15522
     15512,      15522,      15527,      15528,      15523
     15513,      15524,      15529,      15530,      15525
     15514,      15525,      15530,      15531,      15526
     15515,      15526,      15531,      15532,      15527
     15516,      15527,      15532,      15533,      15528
     15517,      15529,      15534,      15535,      15530
     15518,      15530,      15535,      15536,      15531
     15519,      15531,      15536,      15537,      15532
     15520,      15532,      15537,      15538,      15533
** ... 143 like lines cut
*SHELL SECTION, ELSET=bumper_mounting_bracket_right, MATERIAL=Steel3, CONTROLS=ShellControls
2.06000e+000,     3
**
** f_ob_bumper_ft_mounting_reinf_l
**
*ELEMENT, TYPE=S3RS, ELSET=bumper_mounting_reinf_left
     16003,      16003,      16004,      16002
     16010,      16011,      16013,      16012
     16015,      16019,      15151,      15156
     16016,      15161,      15166,      16012
     16017,      16012,      16017,      16019
     16018,      16018,      15133,      15130
     16019,      16018,      16006,      16003
     16020,      16003,      15137,      15136
     16021,      16020,      15035,      15040
     16022,      15025,      16010,      15020
     16024,      16021,      15025,      15030
     16028,      16001,      15055,      15054
     16029,      15058,      15057,      16024
     16034,      16027,      15056,      15055
     16039,      15065,      16031,      16032
     16061,      16043,      16046,      16048
*ELEMENT, TYPE=S4RS, ELSET=bumper_mounting_reinf_left
     16001,      15137,      16003,      16002,      15191
     16002,      15191,      16002,      16001,      15054
     16004,      16002,      16004,      16005,      16001
     16005,      16003,      16006,      16007,      16004
     16006,      16004,      16007,      16008,      16005
     16007,      15020,      16010,      16011,      16009
     16008,      16009,      16011,      16012,      15166
     16009,      16010,      16014,      16013,      16011
     16011,      16014,      16015,      16016,      16013
     16012,      16013,      16016,      16017,      16012
     16013,      16018,      16003,      15136,      15133
     16014,      16019,      15156,      15161,      16012
     16023,      15025,      16021,      16014,      16010
     16025,      16021,      16022,      16015,      16014
     16026,      16022,      16021,      15030,      16023
     16027,      16023,      15030,      15035,      16020
     16030,      16024,      15057,      15056,      16025
     16031,      16005,      16027,      15055,      16001
     16032,      16027,      16005,      16008,      16026
     16033,      16027,      16026,      16025,      15056
** ... 32 like lines cut
*SHELL SECTION, ELSET=bumper_mounting_reinf_left, MATERIAL=Steel3, CONTROLS=ShellControls
3.50000e+000,     3
**
** f_ob_bumper_ft_mounting_reinf_r
**
*ELEMENT, TYPE=S3RS, ELSET=bumper_mounting_reinf_right
     16503,      16503,      16502,      16504
     16510,      16511,      16512,      16513
     16515,      16519,      15656,      15651
     16516,      15661,      16512,      15666
     16517,      16512,      16519,      16517
     16518,      16518,      15630,      15633
     16519,      16518,      16503,      16506
     16520,      16503,      15636,      15637
     16521,      16520,      15540,      15535
     16522,      15525,      15520,      16510
     16524,      16521,      15530,      15525
     16528,      16501,      15554,      15555
     16529,      15558,      16524,      15557
     16534,      16527,      15555,      15556
     16539,      15565,      16532,      16531
     16561,      16543,      16548,      16546
*ELEMENT, TYPE=S4RS, ELSET=bumper_mounting_reinf_right
     16501,      15637,      15691,      16502,      16503
     16502,      15691,      15554,      16501,      16502
     16504,      16502,      16501,      16505,      16504
     16505,      16503,      16504,      16507,      16506
     16506,      16504,      16505,      16508,      16507
     16507,      15520,      16509,      16511,      16510
     16508,      16509,      15666,      16512,      16511
     16509,      16510,      16511,      16513,      16514
     16511,      16514,      16513,      16516,      16515
     16512,      16513,      16512,      16517,      16516
     16513,      16518,      15633,      15636,      16503
     16514,      16519,      16512,      15661,      15656
     16523,      15525,      16510,      16514,      16521
     16525,      16521,      16514,      16515,      16522
     16526,      16522,      16523,      15530,      16521
     16527,      16523,      16520,      15535,      15530
     16530,      16524,      16525,      15556,      15557
     16531,      16505,      16501,      15555,      16527
     16532,      16527,      16526,      16508,      16505
     16533,      16527,      15556,      16525,      16526
** ... 32 like lines cut
*SHELL SECTION, ELSET=bumper_mounting_reinf_right, MATERIAL=Steel3, CONTROLS=ShellControls
3.50000e+000,     3
**
** f_ob_bumper_ft_foam_skin
**
*ELEMENT, TYPE=SFM3D4R, ELSET=bumper_foam_skin
     12001,       9013,       9006,       9007,       9014
     12002,       9014,       9007,       9447,       9448
     12003,       9007,       9006,       9446,       9447
     12004,       9432,       9431,       9438,       9439
     12005,       9448,       9447,       9438,       9431
     12006,       9447,       9446,       9439,       9438
     12007,       9012,       9005,       9006,       9013
     12008,       9006,       9005,       9450,       9446
     12009,       9433,       9432,       9439,       9440
     12010,       9446,       9450,       9440,       9439
     12011,       9005,       9004,       9452,       9450
     12012,       9011,       9004,       9005,       9012
     12013,       9434,       9433,       9440,       9441
     12014,       9450,       9452,       9441,       9440
     12015,       9004,       9003,       9454,       9452
     12016,       9010,       9003,       9004,       9011
     12017,       9435,       9434,       9441,       9442
     12018,       9452,       9454,       9442,       9441
     12019,       9003,       9002,       9456,       9454
     12020,       9009,       9002,       9003,       9010
** ... 1084 like lines cut
*SURFACE SECTION, ELSET=bumper_foam_skin, DENSITY= 7.8900e-009
**
*MPC
BEAM,  113785,  112029
BEAM,  113797,  112122
BEAM,  112575,  113731
BEAM,  112558,  113722
BEAM,  112552,  113716
BEAM,  112554,  113718
BEAM,  113739,  112585
BEAM,  113741,  112587
BEAM,  112337,  113759
BEAM,  112321,  113753
BEAM,  112364,  113770
BEAM,  112362,  113768
BEAM,  113226,  114528
BEAM,  113239,  114521
BEAM,  113221,  114532
BEAM,  113225,  114505
BEAM,  113213,  114501
BEAM,  113208,  114498
BEAM,  113180,  114405
BEAM,  113184,  114425
** ... 197 like lines cut
**
*surface,name=surface-rails_inner
rails_inner
*surface,name=surface-rails_outer
rails_outer
*nset,elset=rails_inner,nset=nodes-rails_inner
*nset,elset=rails_outer,nset=nodes-rails_outer
*SURFACE, NAME=bumper_foam_skin_surface
bumper_foam_skin,
*SURFACE, NAME=bumper_cover_surface
bumper_cover,
**
*End Part
**
** vehicle mass modeled as a rigid body
**
*Part, name=RIGID_BODY
*System
 -528.200012,       -600.,        372., -527.200012,       -600.,        372.
*Node, nset=rigid_body_nodes
      150001,           0.,           0.,         250.
      150002,           0.,        1200.,         250.
      150003,           0.,        1200.,         -50.
      150004,           0.,           0.,         -50.
      150005,         100.,        1200.,         250.
      150006,         100.,        1200.,         -50.
      150007,         100.,           0.,         250.
      150008,         100.,           0.,         -50.
*Element, type=R3D4, elset=rigid_body
150001, 150001, 150002, 150003, 150004
150002, 150002, 150005, 150006, 150003
150003, 150005, 150007, 150008, 150006
150004, 150007, 150001, 150004, 150008
150005, 150002, 150001, 150007, 150005
150006, 150008, 150004, 150003, 150006
*System
*Node, nset=ref_point_at_center_of_mass
     150009,  -1.631554E+03,-7.454698E+00, 6.637651E+02
*element, type=mass, elset=vehicle_mass
150007, 150009
*mass, elset=vehicle_mass
1.9987
*element,type=rotaryi, elset=vehicle_rotaryi
150008, 150009
*rotary inertia, elset=vehicle_rotaryi
8.025066E+05, 4.214527E+06, 4.416539E+06
*End Part
**
** rigid barrier
**
*Part, name=RIGID_BARRIER
*Node, nset=rigid_barrier_nodes
      1600003,           5.,        1000.,        1000.
      1600004,           5.,        1000.,           0.
      1600005,           5.,       -1000.,           0.
      1600006,           5.,       -1000.,        1000.
*system
*Element, type=R3D4, elset=rigid_barrier
1600002, 1600005, 1600004, 1600003, 1600006
*Node, nset=rigid_barrier_ref_point
      1600007,        5.,           0.,           0.
*SURFACE, NAME=rigid_barrier_surface
rigid_barrier,
*End Part
**
*Assembly, name=Assembly
**  
*Instance, name=BUMPER-1, part=BUMPER
*End Instance
**  
*Instance, name=RIGID_BODY-1, part=RIGID_BODY
*End Instance
**  
*Instance, name=RIGID_BARRIER-1, part=RIGID_BARRIER
*End Instance
**
*Rigid Body, ref node=RIGID_BODY-1.ref_point_at_center_of_mass, elset=RIGID_BODY-1.rigid_body, tie nset=BUMPER-1.end_nodes
*Rigid Body, ref node=RIGID_BARRIER-1.rigid_barrier_ref_point, elset=RIGID_BARRIER-1.rigid_barrier
**
*tie, name=tie1, position tolerance=2.5
BUMPER-1.surface-rails_inner,BUMPER-1.surface-rails_outer
**
**               QA_SETS
**
*SURFACE, NAME=QA_TEST_rigid_barrier_surface
RIGID_BARRIER-1.rigid_barrier,
*NSET, NSET=QA_TEST_ref_point_at_com
RIGID_BODY-1.150009,
*NSET, NSET=QA_TEST_rigid_barrier_ref_point
RIGID_BARRIER-1.1600007,
**
*End Assembly
**
*MATERIAL, NAME=foam
*DENSITY
 0.832E-10
*ELASTIC
  25.0000,   0.3000
*CRUSHABLE FOAM, HARDENING=ISOTROPIC
 0.999950, 0.000000
*CRUSHABLE FOAM HARDENING
   0.1659,   0.0000
   0.2805,   0.0206
   0.3597,   0.0417
   0.4308,   0.0632
   0.4908,   0.0852
   0.5442,   0.1076
   0.5908,   0.1306
   0.6224,   0.1542
   0.6540,   0.1783
   0.6724,   0.2029
   0.6921,   0.2283
   0.7101,   0.2542
   0.7231,   0.2809
   0.7294,   0.3083
   0.7411,   0.3365
   0.7453,   0.3655
   0.7560,   0.3953
   0.7633,   0.4261
   0.7685,   0.4578
   0.7721,   0.4907
** ... 21 like lines cut
*RATE DEPENDENT, TYPE=POWER LAW
4867.0000,   4.3380
**
*MATERIAL, NAME=Steel1
*DENSITY
 7.8900e-009,
*ELASTIC
 2.1000e+005,  3.0000e-001
*PLASTIC
 3.0000e+002,  0.0000e+000
 3.3300e+002,  3.9000e-002
 3.6700e+002,  7.7000e-002
 3.9500e+002,  1.2200e-001
 4.2500e+002,  1.6600e-001
 4.7400e+002,  2.4700e-001
 5.5000e+002,  3.2200e-001
 7.0000e+002,  3.9200e-001
 7.1000e+002,  1.0000e+000
** Extrapolated material data:
 7.1206e+002,  1.1250e+000
 7.1411e+002,  1.2500e+000
 7.1617e+002,  1.3750e+000
 7.1822e+002,  1.5000e+000
 7.2028e+002,  1.6250e+000
 7.2234e+002,  1.7500e+000
 7.2439e+002,  1.8750e+000
 7.2645e+002,  2.0000e+000
**
*MATERIAL, NAME=Steel2
*DENSITY
 7.8900e-009,
*ELASTIC
 2.1000e+005,  3.0000e-001
*PLASTIC
 3.3000e+002,  0.0000e+000
 3.6700e+002,  2.0000e-002
 3.7200e+002,  4.9000e-002
 3.7900e+002,  8.2000e-002
 3.8000e+002,  1.2700e-001
 3.8100e+002,  1.7000e-001
 4.3000e+002,  2.3100e-001
 5.0000e+002,  2.7800e-001
 5.1000e+002,  1.0000e+000
** Extrapolated material data:
 5.1173e+002,  1.1250e+000
 5.1346e+002,  1.2500e+000
 5.1519e+002,  1.3750e+000
 5.1693e+002,  1.5000e+000
 5.1866e+002,  1.6250e+000
 5.2039e+002,  1.7500e+000
 5.2212e+002,  1.8750e+000
 5.2385e+002,  2.0000e+000
**
*MATERIAL, NAME=Steel3
*DENSITY
 7.8900e-009,
*ELASTIC
 2.1000e+005,  3.0000e-001
*PLASTIC
 5.7000e+002,  0.0000e+000
 6.2100e+002,  3.4000e-002
 6.6190e+002,  8.2000e-002
 7.0370e+002,  1.2700e-001
 7.4660e+002,  1.7000e-001
 8.5000e+002,  2.1100e-001
 9.8000e+002,  2.4300e-001
 1.2000e+003,  2.8900e-001
 1.2100e+003,  1.0000e+000
** Extrapolated material data:
 1.2118e+003,  1.1250e+000
 1.2135e+003,  1.2500e+000
 1.2153e+003,  1.3750e+000
 1.2170e+003,  1.5000e+000
 1.2188e+003,  1.6250e+000
 1.2205e+003,  1.7500e+000
 1.2223e+003,  1.8750e+000
 1.2241e+003,  2.0000e+000
**
*MATERIAL, NAME=Plastic
*DENSITY
 1.2000e-009,
*ELASTIC
 2.8000e+003,  3.0000e-001
*PLASTIC
 4.5000e+001,  0.0000e+000
 8.8500e+002,  2.0000e+000
**
*SECTION CONTROLS, NAME=FoamControls, HOURGLASS=ENHANCED, DISTORTION CONTROL
*SECTION CONTROLS, NAME=ShellControls, HOURGLASS=STIFFNESS
*BOUNDARY
RIGID_BARRIER-1.rigid_barrier_ref_point,1,6
RIGID_BODY-1.ref_point_at_center_of_mass, 2,3
RIGID_BODY-1.ref_point_at_center_of_mass, 4,5
**
** 28.08 km/h = 7800.0 mm/s
*INITIAL CONDITIONS, TYPE=VELOCITY
RIGID_BODY-1.ref_point_at_center_of_mass, 1, 7800.0
**
**
***********************************************************
** ADD SURFACE INTERACTION DEFINITION
**
**
**------------------------------------------------------------------------------
**
*STEP
Step-1
*DYNAMIC, EXPLICIT, ELEMENT BY ELEMENT
 ,0.075
***********************************************************
** ADD VARIABLE MASS SCALING DEFINITION
**
**
***********************************************************
** ADD CONTACT DEFINITION
**
**
***********************************************************
** ADD CONTACT/SURFACE PROPERTY ASSIGNMENT DEFINITION
**
**
**
** Output requests
**
*OUTPUT, FIELD, NUMBER INTERVAL=20
*NODE OUTPUT
U, V, A
*ELEMENT OUTPUT
S, EMSF, EDT, PEEQ
**
*OUTPUT, HISTORY
*ENERGY OUTPUT, VARIABLE=ALL
*ENERGY OUTPUT, ELSET=BUMPER-1.bumper_foam
ALLAE, ALLKE, ALLIE, ALLSE
*INCREMENTATION OUTPUT
DMASS,
*NODE OUTPUT, NSET=RIGID_BODY-1.ref_point_at_center_of_mass
U1,V1,A1
*OUTPUT, HISTORY, FILTER=ANTIALIASING, time interval=1.0e-4
*NODE OUTPUT, NSET=RIGID_BODY-1.ref_point_at_center_of_mass
U1,V1,A1
*NODE OUTPUT, NSET=RIGID_BARRIER-1.rigid_barrier_ref_point
RF1,
***********************************************************
** ADD CONTACT OUTPUT DEFINITION
**
**
**
*END STEP
