*Heading
Analysis of pipe-reeling
Finite-sliding, node-to-surface contact formulation is used.
**
** PARTS
**
*Part, name=pipe
*Node, nset=pipe
      1,        -100.,           0.,           0.
      2,         -95.,           0.,           0.
      3,         -90.,           0.,           0.
      4,         -85.,           0.,           0.
      5,         -80.,           0.,           0.
      6,         -75.,           0.,           0.
      7,         -70.,           0.,           0.
      8,         -65.,           0.,           0.
      9,         -60.,           0.,           0.
     10,         -55.,           0.,           0.
     11,         -50.,           0.,           0.
     12,         -45.,           0.,           0.
     13,         -40.,           0.,           0.
     14,         -35.,           0.,           0.
     15,         -30.,           0.,           0.
     16,         -25.,           0.,           0.
     17,         -20.,           0.,           0.
     18,         -15.,           0.,           0.
     19,         -10.,           0.,           0.
     20,          -5.,           0.,           0.
** ... 21 like lines cut
*Element, type=B31, elset=pipe
 1,  1,  2
 2,  2,  3
 3,  3,  4
 4,  4,  5
 5,  5,  6
 6,  6,  7
 7,  7,  8
 8,  8,  9
 9,  9, 10
10, 10, 11
11, 11, 12
12, 12, 13
13, 13, 14
14, 14, 15
15, 15, 16
16, 16, 17
17, 17, 18
18, 18, 19
19, 19, 20
20, 20, 21
** ... 20 like lines cut
*Beam Section, elset=pipe, material=Steel, temperature=GRADIENTS, section=PIPE
0.15, 0.01
0.,0.,-1.
*End Part
**  
*Part, name=reel
*End Part
**  
*Part, name=wheel
*Node
      1,   3.03695464,   7.15834141,           4.
      2,   3.85075593,   9.38931847,           4.
      3,   3.03695464,   7.15834141,           6.
      4,   3.85075593,   9.38931847,           6.
      5,   3.89916086,   9.65597534,           4.
      6,   3.85575843,   9.92349243,           4.
      7,   3.72552967,   10.1611681,           4.
      8,    3.5234201,   10.3417253,           4.
      9,   3.85075593,   9.38931847,           4.
     10,   3.27262449,   10.4444427,           4.
     11,   3.85075593,   9.38931847,           6.
     12,    3.5234201,   10.3417253,           6.
     13,   3.72552967,   10.1611681,           6.
     14,   3.85575843,   9.92349243,           6.
     15,   3.89916086,   9.65597534,           6.
     16,   3.27262449,   10.4444427,           6.
     17,   3.27262449,   10.4444427,           4.
     18,   1.45570016,   10.8479214,           4.
     19,   3.27262449,   10.4444427,           6.
     20,   1.45570016,   10.8479214,           6.
** ... 7652 like lines cut
*Element, type=S3
   1,    2,    1,    4
   2,    4,    1,    3
   3,   16,   10,   12
   4,   12,   10,    8
   5,   13,    8,    7
   6,   14,    7,    6
   7,   15,    6,    5
   8,   11,    5,    9
   9,   11,   15,    5
  10,   15,   14,    6
  11,   14,   13,    7
  12,   13,   12,    8
  13,   18,   17,   20
  14,   20,   17,   19
  15,   32,   26,   28
  16,   28,   26,   24
  17,   29,   24,   23
  18,   30,   23,   22
  19,   31,   22,   21
  20,   27,   21,   25
** ... 6500 like lines cut
*Nset, nset=refPt
 1,
*End Part
**  
**
** ASSEMBLY
**
*Assembly, name=Assembly
**  
*Instance, name=reel-1, part=reel
 0., 0., 0.
 0., 0., 0., 0.577350269189626, 0.577350269189626, 0.577350269189626, 120.
*Node
 1,           0.,           0.,           0.
*Surface, type=REVOLUTION, name=reel
START,          14.,           3.
 LINE,         12.5,           3.
 LINE,         12.5,          -3.
 LINE,          14.,          -3.
*Rigid Body, ref node=1, analytical surface=reel
*End Instance
**  
*Instance, name=pipe-1, part=pipe
 -100., 12.5, 0.
*End Instance
**  
*Instance, name=wheel-1, part=wheel
 0., 0., -3.
*End Instance
**  
*Display Body, instance=wheel-1
reel-1.1,
*Nset, nset=freeEnd, instance=pipe-1
 1,
*Nset, nset=reelEnd, instance=pipe-1
 41,
*Nset, nset=pipe, instance=pipe-1, generate
 1, 40, 1
*Elset, elset=pipe, instance=pipe-1, generate
 1, 40, 1
*Nset, nset=refPt, instance=reel-1
 1,
**
*Element, type=CONN3D2, elset=Conn
 1, reel-1.1, pipe-1.41
*Connector Section, elset=Conn
 Beam,
**
*Surface, type=NODE, name=pipe
 pipe, 1.
**
*End Assembly
** 
** MATERIALS
** 
*Material, name=Steel
*Elastic
 2.09e+11, 0.3
*Plastic
  3.5e+08,          0.
 3.65e+08, 6.56189e-05
  3.8e+08, 0.000137266
 3.95e+08, 0.000279054
  4.1e+08, 0.000552493
 4.25e+08,  0.00106735
  4.4e+08,  0.00201541
 4.48e+08,  0.00280395
  4.5e+08,  0.00304244
 4.55e+08,  0.00372535
  4.6e+08,  0.00455145
 4.65e+08,  0.00554872
  4.7e+08,  0.00675018
 4.75e+08,  0.00819477
  4.8e+08,  0.00992834
 4.85e+08,   0.0120047
  4.9e+08,   0.0144872
 4.95e+08,   0.0174496
    5e+08,   0.0209785
 5.05e+08,   0.0251749
** ... 19 like lines cut
** 
** INTERACTION PROPERTIES
** 
** INTERACTIONS
** 
** ----------------------------------------------------------------
** 
** STEP: tension
** 
** BOUNDARY CONDITIONS
**
** LOADS
**
** OUTPUT REQUESTS
** 
*End Step
** ----------------------------------------------------------------
** 
** STEP: reel
** 
** BOUNDARY CONDITIONS
** 
*End Step
** ----------------------------------------------------------------
** 
** STEP: unreel
** 
** BOUNDARY CONDITIONS
** 
*End Step
