1

   Abaqus 2023.HF4                                  Date 07-Nov-2024   Time 19:47:23
   For use by AALTO UNIVERSITY under license from Dassault Systemes or its subsidiary.



                         The Abaqus Software is a product of:

                           Dassault Systemes SIMULIA Corp.
                           1301 Atwood Avenue, Suite 101W
                              Johnston, RI 02919, USA
 


                   The Abaqus Software is available only under license
                   from Dassault Systemes or its subsidiary and may be
                   used or reproduced only in accordance with the terms
                   of such license.
 
                          On machine D23-0234 
                          you are authorized to run
                          Abaqus/Explicit until 20-Feb-2025

                          Your site id is: 200000000014764 


 
                    For assistance or any other information you may
                    obtain contact information for your local office
                    from the world wide web at:

                      https://www.3ds.com/products-services/simulia/services-support/

 
                * * * * * * * * * * * * * * * * * * * * * * * * * * * * * * 
                *                                                         * 
                *                   *****************                     * 
                *                   *  N O T I C E  *                     * 
                *                   *****************                     * 
                *                                                         * 
                *                                                         * 
                *                     Abaqus 2023.HF4                     * 
                *                                                         * 
                *       BUILD ID: 2023_07_21-20.45.57 RELr425 183702      * 
                *                                                         * 
                *                                                         * 
                *  Please make sure you are using                         * 
                *  release Abaqus 2023.HF4 manuals                        * 
                *  plus the notes accompanying this release.              * 
                *                                                         * 
                *                                                         * 
                *                                                         * 
                *                                                         * 
                *                                                         * 
                *   This program may not be used for commercial purposes  * 
                *           without payment of a commercial fee.          * 
                *                                                         * 
                * * * * * * * * * * * * * * * * * * * * * * * * * * * * * * 


 



     PROCESSING PART, INSTANCE, AND ASSEMBLY INFORMATION
   *******************************************************


     END PROCESSING PART, INSTANCE, AND ASSEMBLY INFORMATION
   ***********************************************************




     OPTIONS BEING PROCESSED
   ***************************


  *Heading
  *Element, type=C3D8T
  *Elset, elset=ASSEMBLY_CUBE-1_SET-1
  *Elset, elset=ASSEMBLY_HSURFACE
  *Elset, elset=ASSEMBLY_TOP_SIDE
  *Elset, elset=ASSEMBLY_XSYMM_SIDE
  *Elset, elset=ASSEMBLY_YSYMM_SIDE
  *Elset, elset=ASSEMBLY_ZSYMM_SIDE
  *material, name=STEEL
  *conductivity
  *density
  *elastic
  *plastic
  *specificheat

 ***WARNING: THE ABSOLUTE ZERO TEMPERATURE HAS NOT BEEN SPECIFIED FOR COMPUTING 
             INTERNAL THERMAL ENERGY USING THE ABSOLUTE ZERO PARAMETER ON THE 
             *PHYSICAL CONSTANTS OPTION. A DEFAULT VALUE OF 0.0000 WILL BE 
             ASSUMED.
  *solidsection, elset=ASSEMBLY_CUBE-1_SET-1, material=STEEL
  *solidsection, elset=ASSEMBLY_CUBE-1_SET-1, material=STEEL
  *boundary
  *boundary, amplitude=AMP-1
  *boundary
  *boundary
  *boundary
  *solidsection, elset=ASSEMBLY_CUBE-1_SET-1, material=STEEL
  *elementoutput, directions=YES
  *output, field, numberinterval=100
  *output, history, frequency=0
  *Step, name=Step-1, nlgeom=YES
  *Step, name=Step-1, nlgeom=YES
  *dynamictemperature-displacement, explicit
  *boundary
  *boundary, amplitude=AMP-1
  *boundary
  *boundary
  *boundary
  *output, field, numberinterval=100
  *nodeoutput
  *elementoutput, directions=YES
  *output, history, frequency=0
  *endstep

 ***WARNING: OUTPUT VARIABLE SDV HAS NO COMPONENTS IN THIS ANALYSIS FOR ELEMENT 
             TYPE C3D8T
  *Step, name=Step-1, nlgeom=YES
  *dynamictemperature-displacement, explicit
  *boundary
  *boundary, amplitude=AMP-1
  *boundary
  *boundary
  *boundary
  *endstep



                            P R O B L E M   S I Z E


          NUMBER OF ELEMENTS IS                                    64
          NUMBER OF NODES IS                                      125
          NUMBER OF NODES DEFINED BY THE USER                     125
          TOTAL NUMBER OF VARIABLES IN THE MODEL                  500
          (DEGREES OF FREEDOM PLUS MAX NO. OF ANY LAGRANGE MULTIPLIER
           VARIABLES. INCLUDE *PRINT,SOLVE=YES TO GET THE ACTUAL NUMBER.)



                              END OF USER INPUT PROCESSING



     JOB TIME SUMMARY
       USER TIME (SEC)      =      0.0    
       SYSTEM TIME (SEC)    =      0.0    
       TOTAL CPU TIME (SEC) =      0.0    
       WALLCLOCK TIME (SEC) =            0
