*Heading
Simulation of the snap file of a clip
**
** PARTS
**
*Part, name=Clip
*Node, nset=All
      1,          -4.,        -0.25,          -2.
      2,          -4.,        -0.25,           2.
      3,          -4.,         0.75,           2.
      4,          -4.,         0.75,          -2.
      5,          -6.,        -0.25,          -2.
      6,          -6.,        -0.25,           2.
      7,          -6.,         0.75,           2.
      8,          -6.,         0.75,          -2.
      9,          -4.,        -1.75,          -2.
     10,          -4.,        -1.75,           2.
     11,          -6.,        -1.75,           2.
     12,          -6.,        -1.75,          -2.
     13,         -14.,        -0.25,          -2.
     14,         -14.,        -0.25,           2.
     15,         -14.,        -1.75,          -2.
     16,         -14.,        -1.75,           2.
     17,         -16.,        -0.25,           2.
     18,         -16.,        -0.25,           6.
     19,         -16.,           5.,           6.
     20,         -16.,           5.,           2.
** ... 4958 like lines cut
*Element, type=C3D8R, elset=All
  1,    1,   49,  645,   68,   94,  717, 2823,  687
  2,   49,   50,  646,  645,  717,  718, 2824, 2823
  3,   50,   51,  647,  646,  718,  719, 2825, 2824
  4,   51,   52,  648,  647,  719,  720, 2826, 2825
  5,   52,   53,  649,  648,  720,  721, 2827, 2826
  6,   53,   54,  650,  649,  721,  722, 2828, 2827
  7,   54,   55,  651,  650,  722,  723, 2829, 2828
  8,   55,    2,   56,  651,  723,  108,  702, 2829
  9,   68,  645,  652,   67,  687, 2823, 2830,  688
 10,  645,  646,  653,  652, 2823, 2824, 2831, 2830
 11,  646,  647,  654,  653, 2824, 2825, 2832, 2831
 12,  647,  648,  655,  654, 2825, 2826, 2833, 2832
 13,  648,  649,  656,  655, 2826, 2827, 2834, 2833
 14,  649,  650,  657,  656, 2827, 2828, 2835, 2834
 15,  650,  651,  658,  657, 2828, 2829, 2836, 2835
 16,  651,   56,   57,  658, 2829,  702,  703, 2836
 17,   67,  652,  659,   66,  688, 2830, 2837,  689
 18,  652,  653,  660,  659, 2830, 2831, 2838, 2837
 19,  653,  654,  661,  660, 2831, 2832, 2839, 2838
 20,  654,  655,  662,  661, 2832, 2833, 2840, 2839
** ... 3660 like lines cut
*Solid Section, elset=All, controls=EC-1, material=Duracon
*End Part
**  
*Part, name=Holder
*Node, nset=All
      1,          -2.,           0.,        -4.25
      2,          -2.,          -2.,        -4.25
      3,          -2.,           0.,        -2.25
      4,           0.,          -2.,        -4.25
      5,           0.,           0.,        -4.25
      6,           0.,           0.,        -2.25
      7,           0.,          -2.,         4.25
      8,           0.,           0.,         4.25
      9,           0.,           0.,           6.
     10,           0.,          -2.,           6.
     11,          -2.,           0.,         4.25
     12,          -2.,           0.,           6.
     13,          -2.,          -2.,           6.
     14,          -2.,          -2.,         4.25
     15,          -2.,           0.,         2.25
     16,           0.,           0.,         2.25
     17,          -2.,           0.,          -6.
     18,           0.,           0.,          -6.
     19,           0.,           5.,          -6.
     20,           0.,           5.,           6.
** ... 1655 like lines cut
*Element, type=C3D8R, elset=All
 1, 251, 252, 984, 976,  25,  26, 234, 233
 2, 252, 253, 985, 984,  26,  27, 235, 234
 3, 253,  33, 242, 985,  27,   1,  28, 235
 4, 976, 984, 986, 977, 233, 234, 237, 236
 5, 984, 985, 987, 986, 234, 235, 238, 237
 6, 985, 242, 243, 987, 235,  28,  29, 238
 7, 977, 986, 978, 970, 236, 237, 240, 239
 8, 986, 987, 979, 978, 237, 238, 241, 240
 9, 987, 243, 244, 979, 238,  29,  30, 241
10, 254, 255, 972, 969, 251, 252, 984, 976
11, 255, 256, 973, 972, 252, 253, 985, 984
12, 256,  32, 245, 973, 253,  33, 242, 985
13, 969, 972, 974, 968, 976, 984, 986, 977
14, 972, 973, 975, 974, 984, 985, 987, 986
15, 973, 245, 246, 975, 985, 242, 243, 987
16, 968, 974, 967, 965, 977, 986, 978, 970
17, 974, 975, 966, 967, 986, 987, 979, 978
18, 975, 246, 247, 966, 987, 243, 244, 979
19, 244,  39, 260, 979,  30,   2,  34, 241
20, 979, 260, 261, 978, 241,  34,  35, 240
** ... 1156 like lines cut
*Solid Section, elset=All, controls=EC-1, material=Duracon
*End Part
**  
**
** ASSEMBLY
**
*Assembly, name=Assembly
**  
*Instance, name=Clip-1, part=Clip
*End Instance
**  
*Instance, name=Holder-1, part=Holder
*End Instance
**  
*Nset, nset=Fix, instance=Holder-1
   9,  10,  12,  13,  17,  18,  19,  20,  21,  22,  23,  24,  61,  62,  63,  71
  72,  73,  76,  77,  78,  82,  83,  84, 107, 108, 109, 132, 133, 134, 135, 136
 137, 138, 139, 140, 141, 142, 143, 144, 145, 146, 147, 148, 149, 150, 151, 152
 153, 154, 155, 156, 157, 158, 159, 160, 161, 162, 163, 164, 165, 166, 167, 168
 169, 170, 171, 172, 173, 174, 175, 176, 177, 178, 179, 180, 181, 182, 183, 184
 185, 186, 187, 188, 189, 190, 191, 192, 193, 194, 195, 196, 197, 198, 199, 200
 201, 202, 203, 204, 205, 206, 207, 208, 209, 210, 211, 212, 213, 214, 215, 216
 217, 218, 219, 220, 221, 222, 223, 224, 225, 226, 227, 228, 317, 318, 319, 320
 321, 322, 323, 324, 325, 401, 402, 403, 404, 405, 406, 407, 408, 409, 410, 411
 412, 413, 414, 415, 416, 417, 418, 419, 420, 421, 422, 423, 424, 425, 426, 427
 428, 429, 430, 431, 432, 433, 434, 435, 436, 437, 438, 439, 440, 441, 442, 443
 444, 445, 446, 447, 448, 449, 450, 451, 452, 453, 454, 455, 456, 457, 458, 459
 460, 461, 462, 463, 464, 465, 466, 467, 468, 469, 884, 885, 886, 887, 888, 889
 890, 891, 892, 893, 894, 895, 896, 897, 898, 899, 900, 901, 902, 903, 904, 905
 906, 907, 908, 909, 910, 911, 912, 913, 914, 915, 916, 917, 918, 919, 920, 921
 922, 923, 924, 925, 926, 927, 928, 929, 930, 931, 932, 933, 934, 935, 936, 937
 938, 939, 940, 941, 942, 943, 944, 945, 946
*Nset, nset=Push, instance=Clip-1
   18,   19,   20,   21,   22,   23,   25,   26,   29,   30,   31,   32,   33,   34,   35,   36
   37,   38,   39,   40,   41,   42,   43,   44,  232,  233,  234,  235,  236,  237,  238,  239
  240,  241,  242,  243,  244,  245,  246,  247,  264,  265,  266,  267,  268,  269,  270,  271
  272,  273,  274,  275,  276,  277,  278,  279,  289,  290,  291,  295,  296,  297,  298,  299
  300,  311,  312,  313,  321,  322,  323,  324,  325,  326,  367,  368,  369,  384,  385,  386
  387,  388,  389,  390,  391,  392,  402,  403,  404,  405,  406,  407,  408,  418,  419,  420
  421,  422,  423,  424,  425,  426,  427,  428,  429,  430,  431,  432,  433,  434,  435,  436
  437,  438,  439,  440,  441,  442,  443,  444,  445,  446,  447,  448,  449,  450,  451,  452
  453,  454,  455,  456,  457,  468,  469,  470,  471,  472,  473,  474,  475,  476,  477,  488
  489,  490,  491,  492,  493,  494,  495,  496,  497,  498,  499,  500,  501,  502,  503,  504
  505,  506,  507,  508,  509,  510,  511,  512,  513,  514,  515,  516,  517,  518,  519,  520
  521,  522,  523,  524,  525,  526,  527,  528,  529,  530,  531,  532,  533,  534,  535,  536
  537,  538,  539,  560,  561,  562,  563,  564,  565,  566,  567,  568,  569,  570,  571,  572
  573,  574,  575,  576,  577,  578,  579,  580,  581,  582,  583,  584,  585,  586,  587,  588
  589,  590,  591,  592,  593,  594,  595,  596, 1368, 1369, 1370, 1371, 1372, 1373, 1374, 1375
 1376, 1377, 1378, 1379, 1380, 1381, 1382, 1383, 1384, 1385, 1386, 1387, 1388, 1389, 1390, 1391
 1392, 1393, 1394, 1416, 1417, 1418, 1419, 1420, 1421, 1422, 1423, 1424, 1425, 1426, 1427, 1428
 1429, 1430, 1431, 1432, 1433, 1434, 1435, 1436, 1509, 1510, 1511, 1512, 1513, 1514, 1515, 1516
 1517, 1632, 1633, 1634, 1635, 1636, 1637, 1638, 1639, 1640, 1809, 1810, 1811, 1812, 1813, 1814
 1815, 1816, 1817, 1818, 1819, 1820, 1821, 1822, 1823, 1824, 1825, 1826, 1827, 1828, 1829, 1857
** ... 11 like lines cut
*Elset, elset=Clip-S2, instance=Clip-1, generate
 3297,  3344,     1
*Elset, elset=Clip-S5, instance=Clip-1
  25,  26,  27,  28,  29,  30,  31,  32,  57,  58,  59,  60,  61,  62,  63,  64
  89,  90,  91,  92,  93,  94,  95,  96, 121, 122, 123, 124, 125, 126, 127, 128
 153, 154, 155, 156, 157, 158, 159, 160, 185, 186, 187, 188, 189, 190, 191, 192
*Surface, type=ELEMENT, name=Clip
Clip-S2, S2
Clip-S5, S5
*Elset, elset=Holder-S6, instance=Holder-1, generate
  169,  1125,     4
*Elset, elset=Holder-S2, instance=Holder-1, generate
 197,  236,    1
*Surface, type=ELEMENT, name=Holder
Holder-S6, S6
Holder-S2, S2
*Nset, nset=leadingEdge, instance=Holder-1
   3,  15, 123, 124, 125, 126, 127, 128, 129, 130, 131
*Surface, type=NODE, name=leadingEdge
leadingEdge, 1.
*End Assembly
** 
*Section Controls, name=EC-1, hourglass=ENHANCED
**
** MATERIALS
** 
*Material, name=Duracon
*Elastic
1567., 0.45
** 
** INTERACTION PROPERTIES
** 
** INTERACTIONS
** 
** ----------------------------------------------------------------
** 
** STEP: Step-1
** 
** BOUNDARY CONDITIONS
** 
** OUTPUT REQUESTS
** 
*End Step
