 Abaqus/Standard 2023.HF4                  DATE 03-Aug-2024 TIME 19:41:47
 SUMMARY OF JOB INFORMATION:
 STEP  INC ATT SEVERE EQUIL TOTAL  TOTAL      STEP       INC OF       DOF    IF
               DISCON ITERS ITERS  TIME/    TIME/LPF    TIME/LPF    MONITOR RIKS
               ITERS               FREQ
   1     1   1     0     2     2  0.000100   0.000100   0.0001000 
   1     2   1     0     1     1  0.000200   0.000200   0.0001000 
   1     3   1     0     1     1  0.000350   0.000350   0.0001500 
   1     4   1     0     1     1  0.000575   0.000575   0.0002250 
   1     5   1     0     1     1  0.000913   0.000913   0.0003375 
   1     6   1     0     1     1  0.00142    0.00142    0.0005062 
   1     7   1     0     1     1  0.00218    0.00218    0.0007594 
   1     8   1     0     1     1  0.00318    0.00318    0.001000  
   1     9   1     0     1     1  0.00418    0.00418    0.001000  
   1    10   1     0     1     1  0.00518    0.00518    0.001000  
   1    11   1     0     1     1  0.00618    0.00618    0.001000  
   1    12   1     0     1     1  0.00718    0.00718    0.001000  
   1    13   1     0     1     1  0.00818    0.00818    0.001000  
   1    14   1     0     1     1  0.00918    0.00918    0.001000  
   1    15   1     0     1     1  0.0102     0.0102     0.001000  
   1    16   1     0     1     1  0.0112     0.0112     0.001000  
   1    17   1     0     1     1  0.0122     0.0122     0.001000  
   1    18   1     0     1     1  0.0132     0.0132     0.001000  
   1    19   1     0     1     1  0.0142     0.0142     0.001000  
   1    20   1     0     1     1  0.0152     0.0152     0.001000  
   1    21   1     0     1     1  0.0162     0.0162     0.001000  
   1    22   1     0     1     1  0.0172     0.0172     0.001000  
   1    23   1     0     1     1  0.0182     0.0182     0.001000  
   1    24   1     0     1     1  0.0192     0.0192     0.001000  
   1    25   1     0     1     1  0.0202     0.0202     0.001000  
   1    26   1     0     1     1  0.0212     0.0212     0.001000  
   1    27   1     0     1     1  0.0222     0.0222     0.001000  
   1    28   1     0     1     1  0.0232     0.0232     0.001000  
   1    29   1     0     1     1  0.0242     0.0242     0.001000  
   1    30   1     0     1     1  0.0252     0.0252     0.001000  
   1    31   1     0     1     1  0.0262     0.0262     0.001000  
   1    32   1     0     1     1  0.0272     0.0272     0.001000  
   1    33   1     0     1     1  0.0282     0.0282     0.001000  
   1    34   1     0     1     1  0.0292     0.0292     0.001000  
   1    35   1     0     1     1  0.0302     0.0302     0.001000  
   1    36   1     0     1     1  0.0312     0.0312     0.001000  
   1    37   1     0     1     1  0.0322     0.0322     0.001000  
   1    38   1     0     1     1  0.0332     0.0332     0.001000  
   1    39   1     0     1     1  0.0342     0.0342     0.001000  
   1    40   1     0     1     1  0.0352     0.0352     0.001000  
   1    41   1     0     1     1  0.0362     0.0362     0.001000  
   1    42   1     0     1     1  0.0372     0.0372     0.001000  
   1    43   1     0     1     1  0.0382     0.0382     0.001000  
   1    44   1     0     1     1  0.0392     0.0392     0.001000  
   1    45   1     0     1     1  0.0402     0.0402     0.001000  
   1    46   1     0     1     1  0.0412     0.0412     0.001000  
   1    47   1     0     1     1  0.0422     0.0422     0.001000  
   1    48   1     0     1     1  0.0432     0.0432     0.001000  
   1    49   1     0     1     1  0.0442     0.0442     0.001000  
   1    50   1     0     1     1  0.0452     0.0452     0.001000  
   1    51   1     0     1     1  0.0462     0.0462     0.001000  
   1    52   1     0     1     1  0.0472     0.0472     0.001000  
   1    53   1     0     1     1  0.0482     0.0482     0.001000  
   1    54   1     0     1     1  0.0492     0.0492     0.001000  
   1    55   1     0     1     1  0.0502     0.0502     0.001000  
   1    56   1     0     1     1  0.0512     0.0512     0.001000  
   1    57   1     0     1     1  0.0522     0.0522     0.001000  
   1    58   1     0     1     1  0.0532     0.0532     0.001000  
   1    59   1     0     1     1  0.0542     0.0542     0.001000  
   1    60   1     0     1     1  0.0552     0.0552     0.001000  
   1    61   1     0     1     1  0.0562     0.0562     0.001000  
   1    62   1     0     1     1  0.0572     0.0572     0.001000  
   1    63   1     0     1     1  0.0582     0.0582     0.001000  
   1    64   1     0     1     1  0.0592     0.0592     0.001000  
   1    65   1     0     1     1  0.0602     0.0602     0.001000  
   1    66   1     0     1     1  0.0612     0.0612     0.001000  
   1    67   1     0     1     1  0.0622     0.0622     0.001000  
   1    68   1     0     1     1  0.0632     0.0632     0.001000  
   1    69   1     0     1     1  0.0642     0.0642     0.001000  
   1    70   1     0     1     1  0.0652     0.0652     0.001000  
   1    71   1     0     1     1  0.0662     0.0662     0.001000  
   1    72   1     0     1     1  0.0672     0.0672     0.001000  
   1    73   1     0     1     1  0.0682     0.0682     0.001000  
   1    74   1     0     1     1  0.0692     0.0692     0.001000  
   1    75   1     0     1     1  0.0702     0.0702     0.001000  
   1    76   1     0     1     1  0.0712     0.0712     0.001000  
   1    77   1     0     1     1  0.0722     0.0722     0.001000  
   1    78   1     0     1     1  0.0732     0.0732     0.001000  
   1    79   1     0     1     1  0.0742     0.0742     0.001000  
   1    80   1     0     1     1  0.0752     0.0752     0.001000  
   1    81   1     0     1     1  0.0762     0.0762     0.001000  
   1    82   1     0     1     1  0.0772     0.0772     0.001000  
   1    83   1     0     1     1  0.0782     0.0782     0.001000  
   1    84   1     0     1     1  0.0792     0.0792     0.001000  
   1    85   1     0     1     1  0.0802     0.0802     0.001000  
   1    86   1     0     1     1  0.0812     0.0812     0.001000  
   1    87   1     0     1     1  0.0822     0.0822     0.001000  
   1    88   1     0     1     1  0.0832     0.0832     0.001000  
   1    89   1     0     1     1  0.0842     0.0842     0.001000  
   1    90   1     0     1     1  0.0852     0.0852     0.001000  
   1    91   1     0     1     1  0.0862     0.0862     0.001000  
   1    92   1     0     1     1  0.0872     0.0872     0.001000  
   1    93   1     0     1     1  0.0882     0.0882     0.001000  
   1    94   1     0     1     1  0.0892     0.0892     0.001000  
   1    95   1     0     1     1  0.0902     0.0902     0.001000  
   1    96   1     0     1     1  0.0912     0.0912     0.001000  
   1    97   1     0     1     1  0.0922     0.0922     0.001000  
   1    98   1     0     1     1  0.0932     0.0932     0.001000  
   1    99   1     0     1     1  0.0942     0.0942     0.001000  
   1   100   1     0     1     1  0.0952     0.0952     0.001000  
   1   101   1     0     1     1  0.0962     0.0962     0.001000  
   1   102   1     0     1     1  0.0972     0.0972     0.001000  
   1   103   1     0     1     1  0.0982     0.0982     0.001000  
   1   104   1     0     1     1  0.0992     0.0992     0.001000  
   1   105   1     0     1     1  0.100      0.100      0.001000  
   1   106   1     0     1     1  0.101      0.101      0.001000  
   1   107   1     0     1     1  0.102      0.102      0.001000  
   1   108   1     0     1     1  0.103      0.103      0.001000  
   1   109   1     0     1     1  0.104      0.104      0.001000  
   1   110   1     0     1     1  0.105      0.105      0.001000  
   1   111   1     0     1     1  0.106      0.106      0.001000  
   1   112   1     0     1     1  0.107      0.107      0.001000  
   1   113   1     0     1     1  0.108      0.108      0.001000  
   1   114   1     0     1     1  0.109      0.109      0.001000  
   1   115   1     0     1     1  0.110      0.110      0.001000  
   1   116   1     0     1     1  0.111      0.111      0.001000  
   1   117   1     0     1     1  0.112      0.112      0.001000  
   1   118   1     0     1     1  0.113      0.113      0.001000  
   1   119   1     0     1     1  0.114      0.114      0.001000  
   1   120   1     0     1     1  0.115      0.115      0.001000  
   1   121   1     0     1     1  0.116      0.116      0.001000  
   1   122   1     0     1     1  0.117      0.117      0.001000  
   1   123   1     0     1     1  0.118      0.118      0.001000  
   1   124   1     0     1     1  0.119      0.119      0.001000  
   1   125   1     0     1     1  0.120      0.120      0.001000  
   1   126   1     0     1     1  0.121      0.121      0.001000  
   1   127   1     0     1     1  0.122      0.122      0.001000  
   1   128   1     0     1     1  0.123      0.123      0.001000  
   1   129   1     0     1     1  0.124      0.124      0.001000  
   1   130   1     0     1     1  0.125      0.125      0.001000  
   1   131   1     0     1     1  0.126      0.126      0.001000  
   1   132   1     0     1     1  0.127      0.127      0.001000  
   1   133   1     0     1     1  0.128      0.128      0.001000  
   1   134   1     0     1     1  0.129      0.129      0.001000  
   1   135   1     0     1     1  0.130      0.130      0.001000  
   1   136   1     0     1     1  0.131      0.131      0.001000  
   1   137   1     0     1     1  0.132      0.132      0.001000  
   1   138   1     0     1     1  0.133      0.133      0.001000  
   1   139   1     0     1     1  0.134      0.134      0.001000  
   1   140   1     0     1     1  0.135      0.135      0.001000  
   1   141   1     0     2     2  0.136      0.136      0.001000  
   1   142   1     0     1     1  0.137      0.137      0.001000  
   1   143   1     0     1     1  0.138      0.138      0.001000  
   1   144   1     0     1     1  0.139      0.139      0.001000  
   1   145   1     0     1     1  0.140      0.140      0.001000  
   1   146   1     0     1     1  0.141      0.141      0.001000  
   1   147   1     0     2     2  0.142      0.142      0.001000  
   1   148   1     0     1     1  0.143      0.143      0.001000  
   1   149   1     0     2     2  0.144      0.144      0.001000  
   1   150   1     0     2     2  0.145      0.145      0.001000  
   1   151   1     0     1     1  0.146      0.146      0.001000  
   1   152   1     0     1     1  0.147      0.147      0.001000  
   1   153   1     0     1     1  0.148      0.148      0.001000  
   1   154   1     0     1     1  0.149      0.149      0.001000  
   1   155   1     0     2     2  0.150      0.150      0.001000  
   1   156   1     0     1     1  0.151      0.151      0.001000  
   1   157   1     0     2     2  0.152      0.152      0.001000  
   1   158   1     0     2     2  0.153      0.153      0.001000  
   1   159   1     0     1     1  0.154      0.154      0.001000  
   1   160   1     0     1     1  0.155      0.155      0.001000  
   1   161   1     0     1     1  0.156      0.156      0.001000  
   1   162   1     0     1     1  0.157      0.157      0.001000  
   1   163   1     0     1     1  0.158      0.158      0.001000  
   1   164   1     0     1     1  0.159      0.159      0.001000  
   1   165   1     0     2     2  0.160      0.160      0.001000  
   1   166   1     0     1     1  0.161      0.161      0.001000  
   1   167   1     0     2     2  0.162      0.162      0.001000  
   1   168   1     0     2     2  0.163      0.163      0.001000  
   1   169   1     0     1     1  0.164      0.164      0.001000  
   1   170   1     0     1     1  0.165      0.165      0.001000  
   1   171   1     0     1     1  0.166      0.166      0.001000  
   1   172   1     0     1     1  0.167      0.167      0.001000  
   1   173   1     0     1     1  0.168      0.168      0.001000  
   1   174   1     0     1     1  0.169      0.169      0.001000  
   1   175   1     0     1     1  0.170      0.170      0.001000  
   1   176   1     0     1     1  0.171      0.171      0.001000  
   1   177   1     0     2     2  0.172      0.172      0.001000  
   1   178   1     0     2     2  0.173      0.173      0.001000  
   1   179   1     0     1     1  0.174      0.174      0.001000  
   1   180   1     0     1     1  0.175      0.175      0.001000  
   1   181   1     0     1     1  0.176      0.176      0.001000  
   1   182   1     0     1     1  0.177      0.177      0.001000  
   1   183   1     0     1     1  0.178      0.178      0.001000  
   1   184   1     0     1     1  0.179      0.179      0.001000  
   1   185   1     0     1     1  0.180      0.180      0.001000  
   1   186   1     0     1     1  0.181      0.181      0.001000  
   1   187   1     0     1     1  0.182      0.182      0.001000  
   1   188   1     0     1     1  0.183      0.183      0.001000  
   1   189   1     0     1     1  0.184      0.184      0.001000  
   1   190   1     0     1     1  0.185      0.185      0.001000  
   1   191   1     0     2     2  0.186      0.186      0.001000  
   1   192   1     0     1     1  0.187      0.187      0.001000  
   1   193   1     0     2     2  0.188      0.188      0.001000  
   1   194   1     0     1     1  0.189      0.189      0.001000  
   1   195   1     0     2     2  0.190      0.190      0.001000  
   1   196   1     0     1     1  0.191      0.191      0.001000  
   1   197   1     0     2     2  0.192      0.192      0.001000  
   1   198   1     0     2     2  0.193      0.193      0.001000  
   1   199   1     0     1     1  0.194      0.194      0.001000  
   1   200   1     0     1     1  0.195      0.195      0.001000  
   1   201   1     0     1     1  0.196      0.196      0.001000  
   1   202   1     0     1     1  0.197      0.197      0.001000  
   1   203   1     0     1     1  0.198      0.198      0.001000  
   1   204   1     0     1     1  0.199      0.199      0.001000  
   1   205   1     0     1     1  0.200      0.200      0.001000  
   1   206   1     0     1     1  0.201      0.201      0.001000  
   1   207   1     0     1     1  0.202      0.202      0.001000  
   1   208   1     0     1     1  0.203      0.203      0.001000  
   1   209   1     0     1     1  0.204      0.204      0.001000  
   1   210   1     0     1     1  0.205      0.205      0.001000  
   1   211   1     0     2     2  0.206      0.206      0.001000  
   1   212   1     0     1     1  0.207      0.207      0.001000  
   1   213   1     0     2     2  0.208      0.208      0.001000  
   1   214   1     0     1     1  0.209      0.209      0.001000  
   1   215   1     0     2     2  0.210      0.210      0.001000  
   1   216   1     0     1     1  0.211      0.211      0.001000  
   1   217   1     0     2     2  0.212      0.212      0.001000  
   1   218   1     0     2     2  0.213      0.213      0.001000  
   1   219   1     0     1     1  0.214      0.214      0.001000  
   1   220   1     0     1     1  0.215      0.215      0.001000  
   1   221   1     0     1     1  0.216      0.216      0.001000  
   1   222   1     0     1     1  0.217      0.217      0.001000  
   1   223   1     0     1     1  0.218      0.218      0.001000  
   1   224   1     0     1     1  0.219      0.219      0.001000  
   1   225   1     0     1     1  0.220      0.220      0.001000  
   1   226   1     0     1     1  0.221      0.221      0.001000  
   1   227   1     0     1     1  0.222      0.222      0.001000  
   1   228   1     0     1     1  0.223      0.223      0.001000  
   1   229   1     0     1     1  0.224      0.224      0.001000  
   1   230   1     0     1     1  0.225      0.225      0.001000  
   1   231   1     0     1     1  0.226      0.226      0.001000  
   1   232   1     0     1     1  0.227      0.227      0.001000  
   1   233   1     0     1     1  0.228      0.228      0.001000  
   1   234   1     0     2     2  0.229      0.229      0.001000  
   1   235   1     0     1     1  0.230      0.230      0.001000  
   1   236   1     0     2     2  0.231      0.231      0.001000  
   1   237   1     0     1     1  0.232      0.232      0.001000  
   1   238   1     0     2     2  0.233      0.233      0.001000  
   1   239   1     0     2     2  0.234      0.234      0.001000  
   1   240   1     0     1     1  0.235      0.235      0.001000  
   1   241   1     0     1     1  0.236      0.236      0.001000  
   1   242   1     0     1     1  0.237      0.237      0.001000  
   1   243   1     0     1     1  0.238      0.238      0.001000  
   1   244   1     0     1     1  0.239      0.239      0.001000  
   1   245   1     0     1     1  0.240      0.240      0.001000  
   1   246   1     0     1     1  0.241      0.241      0.001000  
   1   247   1     0     1     1  0.242      0.242      0.001000  
   1   248   1     0     1     1  0.243      0.243      0.001000  
   1   249   1     0     1     1  0.244      0.244      0.001000  
   1   250   1     0     1     1  0.245      0.245      0.001000  
   1   251   1     0     1     1  0.246      0.246      0.001000  
   1   252   1     0     1     1  0.247      0.247      0.001000  
   1   253   1     0     1     1  0.248      0.248      0.001000  
   1   254   1     0     1     1  0.249      0.249      0.001000  
   1   255   1     0     1     1  0.250      0.250      0.001000  
   1   256   1     0     1     1  0.251      0.251      0.001000  
   1   257   1     0     1     1  0.252      0.252      0.001000  
   1   258   1     0     1     1  0.253      0.253      0.001000  
   1   259   1     0     1     1  0.254      0.254      0.001000  
   1   260   1     0     2     2  0.255      0.255      0.001000  
   1   261   1     0     1     1  0.256      0.256      0.001000  
   1   262   1     0     2     2  0.257      0.257      0.001000  
   1   263   1     0     1     1  0.258      0.258      0.001000  
   1   264   1     0     2     2  0.259      0.259      0.001000  
   1   265   1     0     1     1  0.260      0.260      0.001000  
   1   266   1     0     2     2  0.261      0.261      0.001000  
   1   267   1     0     2     2  0.262      0.262      0.001000  
   1   268   1     0     1     1  0.263      0.263      0.001000  
   1   269   1     0     1     1  0.264      0.264      0.001000  
   1   270   1     0     1     1  0.265      0.265      0.001000  
   1   271   1     0     1     1  0.266      0.266      0.001000  
   1   272   1     0     1     1  0.267      0.267      0.001000  
   1   273   1     0     1     1  0.268      0.268      0.001000  
   1   274   1     0     1     1  0.269      0.269      0.001000  
   1   275   1     0     1     1  0.270      0.270      0.001000  
   1   276   1     0     1     1  0.271      0.271      0.001000  
   1   277   1     0     1     1  0.272      0.272      0.001000  
   1   278   1     0     1     1  0.273      0.273      0.001000  
   1   279   1     0     1     1  0.274      0.274      0.001000  
   1   280   1     0     1     1  0.275      0.275      0.001000  
   1   281   1     0     1     1  0.276      0.276      0.001000  
   1   282   1     0     1     1  0.277      0.277      0.001000  
   1   283   1     0     1     1  0.278      0.278      0.001000  
   1   284   1     0     1     1  0.279      0.279      0.001000  
   1   285   1     0     1     1  0.280      0.280      0.001000  
   1   286   1     0     3     3  0.281      0.281      0.001000  
   1   287   1     0     2     2  0.282      0.282      0.001000  
   1   288   1     0     1     1  0.283      0.283      0.001000  
   1   289   1     0     1     1  0.284      0.284      0.001000  
   1   290   1     0     2     2  0.285      0.285      0.001000  
   1   291   1     0     2     2  0.286      0.286      0.001000  
   1   292   1     0     1     1  0.287      0.287      0.001000  
   1   293   1     0     1     1  0.288      0.288      0.001000  
   1   294   1     0     2     2  0.289      0.289      0.001000  
   1   295   1     0     1     1  0.290      0.290      0.001000  
   1   296   1     0     2     2  0.291      0.291      0.001000  
   1   297   1     0     2     2  0.292      0.292      0.001000  
   1   298   1     0     2     2  0.293      0.293      0.001000  
   1   299   1     0     2     2  0.294      0.294      0.001000  
   1   300   1     0     1     1  0.295      0.295      0.001000  
   1   301   1     0     2     2  0.296      0.296      0.001000  
   1   302   1     0     1     1  0.297      0.297      0.001000  
   1   303   1     0     2     2  0.298      0.298      0.001000  
   1   304   1     0     2     2  0.299      0.299      0.001000  
   1   305   1     0     1     1  0.300      0.300      0.001000  
   1   306   1     0     1     1  0.301      0.301      0.001000  
   1   307   1     0     2     2  0.302      0.302      0.001000  
   1   308   1     0     1     1  0.303      0.303      0.001000  
   1   309   1     0     2     2  0.304      0.304      0.001000  
   1   310   1     0     1     1  0.305      0.305      0.001000  
   1   311   1     0     2     2  0.306      0.306      0.001000  
   1   312   1     0     2     2  0.307      0.307      0.001000  
   1   313   1     0     1     1  0.308      0.308      0.001000  
   1   314   1     0     1     1  0.309      0.309      0.001000  
   1   315   1     0     1     1  0.310      0.310      0.001000  
   1   316   1     0     2     2  0.311      0.311      0.001000  
   1   317   1     0     1     1  0.312      0.312      0.001000  
   1   318   1     0     2     2  0.313      0.313      0.001000  
   1   319   1     0     1     1  0.314      0.314      0.001000  
   1   320   1     0     2     2  0.315      0.315      0.001000  
   1   321   1     0     1     1  0.316      0.316      0.001000  
   1   322   1     0     2     2  0.317      0.317      0.001000  
   1   323   1     0     1     1  0.318      0.318      0.001000  
   1   324   1     0     2     2  0.319      0.319      0.001000  
   1   325   1     0     1     1  0.320      0.320      0.001000  
   1   326   1     0     2     2  0.321      0.321      0.001000  
   1   327   1     0     2     2  0.322      0.322      0.001000  
   1   328   1     0     1     1  0.323      0.323      0.001000  
   1   329   1     0     1     1  0.324      0.324      0.001000  
   1   330   1     0     1     1  0.325      0.325      0.001000  
   1   331   1     0     1     1  0.326      0.326      0.001000  
   1   332   1     0     2     2  0.327      0.327      0.001000  
   1   333   1     0     1     1  0.328      0.328      0.001000  
   1   334   1     0     2     2  0.329      0.329      0.001000  
   1   335   1     0     1     1  0.330      0.330      0.001000  
   1   336   1     0     2     2  0.331      0.331      0.001000  
   1   337   1     0     1     1  0.332      0.332      0.001000  
   1   338   1     0     2     2  0.333      0.333      0.001000  
   1   339   1     0     3     3  0.334      0.334      0.001000  
   1   340   1     0     3     3  0.335      0.335      0.001000  
   1   341   1     0     3     3  0.336      0.336      0.001000  
   1   342   1     0     1     1  0.337      0.337      0.001000  
   1   343   1     0     2     2  0.338      0.338      0.001000  
   1   344   1     0     2     2  0.339      0.339      0.001000  
   1   345   1     0     1     1  0.340      0.340      0.001000  
   1   346   1     0     2     2  0.341      0.341      0.001000  
   1   347   1     0     1     1  0.342      0.342      0.001000  
   1   348   1     0     1     1  0.343      0.343      0.001000  
   1   349   1     0     2     2  0.344      0.344      0.001000  
   1   350   1     0     2     2  0.345      0.345      0.001000  
   1   351   1     0     1     1  0.346      0.346      0.001000  
   1   352   1     0     1     1  0.347      0.347      0.001000  
   1   353   1     0     2     2  0.348      0.348      0.001000  
   1   354   1     0     1     1  0.349      0.349      0.001000  
   1   355   1     0     2     2  0.350      0.350      0.001000  
   1   356   1     0     2     2  0.351      0.351      0.001000  
   1   357   1     0     1     1  0.352      0.352      0.001000  
   1   358   1     0     2     2  0.353      0.353      0.001000  
   1   359   1     0     2     2  0.354      0.354      0.001000  
   1   360   1     0     2     2  0.355      0.355      0.001000  
   1   361   1     0     2     2  0.356      0.356      0.001000  
   1   362   1     0     1     1  0.357      0.357      0.001000  
   1   363   1     0     2     2  0.358      0.358      0.001000  
   1   364   1     0     2     2  0.359      0.359      0.001000  
   1   365   1     0     1     1  0.360      0.360      0.001000  
   1   366   1     0     2     2  0.361      0.361      0.001000  
   1   367   1     0     1     1  0.362      0.362      0.001000  
   1   368   1     0     2     2  0.363      0.363      0.001000  
   1   369   1     0     2     2  0.364      0.364      0.001000  
   1   370   1     0     1     1  0.365      0.365      0.001000  
   1   371   1     0     3     3  0.366      0.366      0.001000  
   1   372   1     0     3     3  0.367      0.367      0.001000  
   1   373   1     0     3     3  0.368      0.368      0.001000  
   1   374   1     0     3     3  0.369      0.369      0.001000  
   1   375   1     0     2     2  0.370      0.370      0.001000  
   1   376   1     0     2     2  0.371      0.371      0.001000  
   1   377   1     0     2     2  0.372      0.372      0.001000  
   1   378   1     0     2     2  0.373      0.373      0.001000  
   1   379   1     0     2     2  0.374      0.374      0.001000  
   1   380   1     0     2     2  0.375      0.375      0.001000  
   1   381   1     0     2     2  0.376      0.376      0.001000  
   1   382   1     0     2     2  0.377      0.377      0.001000  
   1   383   1     0     2     2  0.378      0.378      0.001000  
   1   384   1     0     2     2  0.379      0.379      0.001000  
   1   385   1     0     3     3  0.380      0.380      0.001000  
   1   386   1     0     3     3  0.381      0.381      0.001000  
   1   387   1     0     2     2  0.382      0.382      0.001000  
   1   388   1     0     2     2  0.383      0.383      0.001000  
   1   389   1     0     2     2  0.384      0.384      0.001000  
   1   390   1     0     2     2  0.385      0.385      0.001000  
   1   391   1     0     3     3  0.386      0.386      0.001000  
   1   392   1     0     3     3  0.387      0.387      0.001000  
   1   393   1     0     2     2  0.388      0.388      0.001000  
   1   394   1     0     3     3  0.389      0.389      0.001000  
   1   395   1     0     3     3  0.390      0.390      0.001000  
   1   396   1     0     3     3  0.391      0.391      0.001000  
   1   397   1     0     3     3  0.392      0.392      0.001000  
   1   398   1     0     3     3  0.393      0.393      0.001000  
   1   399   1     0     3     3  0.394      0.394      0.001000  
   1   400   1     0     3     3  0.395      0.395      0.001000  
   1   401   1     0     3     3  0.396      0.396      0.001000  
   1   402   1     0     3     3  0.397      0.397      0.001000  
   1   403   1     0     4     4  0.398      0.398      0.001000  
   1   404   1     0     4     4  0.399      0.399      0.001000  
   1   405   1     0     3     3  0.400      0.400      0.001000  
   1   406   1     0     4     4  0.401      0.401      0.001000  
   1   407   1     0     4     4  0.402      0.402      0.001000  
   1   408   1     0     3     3  0.403      0.403      0.001000  
   1   409   1     0     4     4  0.404      0.404      0.001000  
   1   410   1     0     6     6  0.405      0.405      0.001000  
   1   411   1     0     5     5  0.406      0.406      0.001000  
   1   412   1     0     6     6  0.407      0.407      0.001000  
   1   413   1     0     3     3  0.408      0.408      0.001000  
   1   414   1     0     4     4  0.409      0.409      0.001000  
   1   415   1     0     4     4  0.410      0.410      0.001000  
   1   416   1     0     4     4  0.411      0.411      0.001000  
   1   417   1     0     4     4  0.412      0.412      0.001000  
   1   418   1     0     7     7  0.413      0.413      0.001000  
   1   419   1     0     7     7  0.414      0.414      0.001000  
   1   420   1     0     8     8  0.415      0.415      0.001000  
   1   421   1     0     8     8  0.416      0.416      0.001000  
   1   422   1     0     8     8  0.417      0.417      0.001000  
   1   423   1     0     7     7  0.418      0.418      0.001000  
   1   424   1     0     7     7  0.419      0.419      0.001000  
   1   425   1     0     7     7  0.420      0.420      0.001000  
   1   426   1     0     5     5  0.421      0.421      0.001000  
   1   427   1     0     5     5  0.422      0.422      0.001000  
   1   428   1     0     5     5  0.423      0.423      0.001000  
   1   429   1     0     5     5  0.424      0.424      0.001000  
   1   430   1     0     6     6  0.425      0.425      0.001000  
   1   431   1     0     6     6  0.426      0.426      0.001000  
   1   432   1     0     6     6  0.427      0.427      0.001000  
   1   433   1     0     6     6  0.428      0.428      0.001000  
   1   434   1     0     6     6  0.429      0.429      0.001000  
   1   435   1     0     6     6  0.430      0.430      0.001000  
   1   436   1     0     6     6  0.431      0.431      0.001000  
   1   437   1     0     6     6  0.432      0.432      0.001000  
   1   438   1     0     6     6  0.433      0.433      0.001000  
   1   439   1     0     6     6  0.434      0.434      0.001000  
   1   440   1     0     6     6  0.435      0.435      0.001000  
   1   441   1     0     6     6  0.436      0.436      0.001000  
   1   442   1     0     7     7  0.437      0.437      0.001000  
   1   443   1     0     7     7  0.438      0.438      0.001000  
   1   444   1     0     7     7  0.439      0.439      0.001000  
   1   445   1     0     7     7  0.440      0.440      0.001000  
   1   446   1     0     7     7  0.441      0.441      0.001000  
   1   447   1     0    10    10  0.442      0.442      0.001000  
   1   448   1U    0    10    10  0.442      0.442      0.001000  
   1   448   2     0     6     6  0.443      0.443      0.0005000 
   1   449   1     0    10    10  0.443      0.443      0.0005000 
   1   450   1     0     8     8  0.444      0.444      0.0005000 
   1   451   1     0     4     4  0.444      0.444      0.0005000 
   1   452   1     0     7     7  0.445      0.445      0.0005000 
   1   453   1     0     4     4  0.445      0.445      0.0005000 
   1   454   1     0     8     8  0.446      0.446      0.0005000 
   1   455   1     0     5     5  0.446      0.446      0.0005000 
   1   456   1U    0     4     4  0.446      0.446      0.0005000 
   1   456   2     0     2     2  0.446      0.446      0.0001250 
   1   457   1     0     1     1  0.446      0.446      0.0001250 
   1   458   1U    0    10    10  0.446      0.446      0.0001875 
   1   458   2     0     2     2  0.447      0.447      9.375e-05 
   1   459   1U    0     4     4  0.447      0.447      0.0001406 
   1   459   2     0     1     1  0.447      0.447      3.516e-05 
   1   460   1     0     1     1  0.447      0.447      5.273e-05 
   1   461   1     0    10    10  0.447      0.447      7.910e-05 
   1   462   1     0     7     7  0.447      0.447      7.910e-05 
   1   463   1     0     5     5  0.447      0.447      7.910e-05 
   1   464   1     0     3     3  0.447      0.447      7.910e-05 
   1   465   1     0     3     3  0.447      0.447      7.910e-05 
   1   466   1     0     2     2  0.447      0.447      0.0001187 
   1   467   1     0     2     2  0.447      0.447      0.0001780 
   1   468   1     0     2     2  0.448      0.448      0.0002670 
   1   469   1     0    10    10  0.448      0.448      0.0004005 
   1   470   1     0     8     8  0.448      0.448      0.0004005 
   1   471   1     0     3     3  0.449      0.449      0.0004005 
   1   472   1     0    10    10  0.449      0.449      0.0004005 
   1   473   1     0     8     8  0.450      0.450      0.0004005 
   1   474   1     0     4     4  0.450      0.450      0.0004005 
   1   475   1U    0    10    10  0.450      0.450      0.0004005 
   1   475   2     0     2     2  0.450      0.450      0.0002002 
   1   476   1     0    10    10  0.450      0.450      0.0003003 
   1   477   1     0     8     8  0.451      0.451      0.0003003 
   1   478   1     0     4     4  0.451      0.451      0.0003003 
   1   479   1     0     2     2  0.451      0.451      0.0003003 
   1   480   1     0    10    10  0.452      0.452      0.0004505 
   1   481   1     0     7     7  0.452      0.452      0.0004505 
   1   482   1     0     3     3  0.453      0.453      0.0004505 
   1   483   1     0    10    10  0.453      0.453      0.0004505 
   1   484   1     0     7     7  0.454      0.454      0.0004505 
   1   485   1     0     4     4  0.454      0.454      0.0004505 
   1   486   1     0    11    11  0.455      0.455      0.0004505 
   1   487   1     0     9     9  0.455      0.455      0.0003379 
   1   488   1     0     4     4  0.455      0.455      0.0003379 
   1   489   1     0     3     3  0.456      0.456      0.0003379 
   1   490   1     0    10    10  0.456      0.456      0.0005068 
   1   491   1     0     6     6  0.457      0.457      0.0005068 
   1   492   1     0     4     4  0.457      0.457      0.0005068 
   1   493   1     0    10    10  0.458      0.458      0.0005068 
   1   494   1     0     6     6  0.458      0.458      0.0005068 
   1   495   1     0     3     3  0.459      0.459      0.0005068 
   1   496   1     0    10    10  0.459      0.459      0.0005068 
   1   497   1     0     6     6  0.460      0.460      0.0005068 
   1   498   1     0     4     4  0.460      0.460      0.0005068 
   1   499   1U    0     4     4  0.460      0.460      0.0005068 
   1   499   2     0     2     2  0.460      0.460      0.0001267 
   1   500   1     0     2     2  0.460      0.460      0.0001901 
   1   501   1     0    10    10  0.461      0.461      0.0002851 
   1   502   1     0     6     6  0.461      0.461      0.0002851 
   1   503   1     0     4     4  0.461      0.461      0.0002851 
   1   504   1     0     3     3  0.462      0.462      0.0002851 
   1   505   1     0     2     2  0.462      0.462      0.0004276 
   1   506   1     0     9     9  0.463      0.463      0.0006414 
   1   507   1     0     5     5  0.463      0.463      0.0006414 
   1   508   1U    0    16    16  0.463      0.463      0.0006414 
   1   508   2     0     3     3  0.463      0.463      0.0001604 
   1   509   1     0     1     1  0.464      0.464      0.0001604 
   1   510   1     0     2     2  0.464      0.464      0.0002405 
   1   511   1     0     9     9  0.464      0.464      0.0003608 
   1   512   1     0     6     6  0.465      0.465      0.0003608 
   1   513   1     0     3     3  0.465      0.465      0.0003608 
   1   514   1     0     3     3  0.465      0.465      0.0003608 
   1   515   1U    0     4     4  0.465      0.465      0.0005412 
   1   515   2     0     2     2  0.465      0.465      0.0001353 
   1   516   1     0     2     2  0.466      0.466      0.0002030 
   1   517   1     0    10    10  0.466      0.466      0.0003044 
   1   518   1     0     7     7  0.466      0.466      0.0003044 
   1   519   1     0     4     4  0.467      0.467      0.0003044 
   1   520   1     0     3     3  0.467      0.467      0.0003044 
   1   521   1     0     3     3  0.467      0.467      0.0004567 
   1   522   1     0    10    10  0.468      0.468      0.0006850 
   1   523   1     0     6     6  0.469      0.469      0.0006850 
   1   524   1     0     5     5  0.469      0.469      0.0006850 
   1   525   1     0    10    10  0.470      0.470      0.0006850 
   1   526   1     0     6     6  0.471      0.471      0.0006850 
   1   527   1     0     4     4  0.471      0.471      0.0006850 
   1   528   1     0    11    11  0.472      0.472      0.0006850 
   1   529   1     0     7     7  0.473      0.473      0.0005137 
   1   530   1     0     4     4  0.473      0.473      0.0005137 
   1   531   1     0     3     3  0.474      0.474      0.0005137 
   1   532   1     0    11    11  0.474      0.474      0.0007706 
   1   533   1     0     7     7  0.475      0.475      0.0005780 
   1   534   1     0     4     4  0.476      0.476      0.0005780 
   1   535   1     0     3     3  0.476      0.476      0.0005780 
   1   536   1     0    10    10  0.477      0.477      0.0008669 
   1   537   1     0     6     6  0.478      0.478      0.0008669 
   1   538   1     0     6     6  0.479      0.479      0.0008669 
   1   539   1     0    11    11  0.480      0.480      0.0008669 
   1   540   1     0     6     6  0.480      0.480      0.0006502 
   1   541   1     0     4     4  0.481      0.481      0.0006502 
   1   542   1U    0    10    10  0.481      0.481      0.0006502 
   1   542   2     0     2     2  0.481      0.481      0.0003251 
   1   543   1U    0     5     5  0.481      0.481      0.0004876 
   1   543   2     0     2     2  0.481      0.481      0.0001219 
   1   544   1U    0    10    10  0.481      0.481      0.0001829 
   1   544   2     0     2     2  0.481      0.481      9.143e-05 
   1   545   1U    0     9     9  0.481      0.481      0.0001372 
   1   545   2U    0     9     9  0.481      0.481      6.858e-05 
   1   545   3     0     2     2  0.481      0.481      3.429e-05 
   1   546   1U    0     9     9  0.481      0.481      5.143e-05 
   1   546   2U    0     9     9  0.481      0.481      2.572e-05 
   1   546   3     0     1     1  0.481      0.481      1.286e-05 
   1   547   1U    0     9     9  0.481      0.481      1.929e-05 
   1   547   2U    0     9     9  0.481      0.481      9.643e-06 
   1   547   3U    0     9     9  0.481      0.481      4.822e-06 
   1   547   4     0     1     1  0.481      0.481      2.411e-06 
   1   548   1     0    10    10  0.481      0.481      3.616e-06 
   1   549   1U    0     9     9  0.481      0.481      3.616e-06 
   1   549   2     0    10    10  0.481      0.481      1.808e-06 
   1   550   1     0     6     6  0.481      0.481      1.808e-06 
   1   551   1     0     2     2  0.481      0.481      1.808e-06 
   1   552   1     0     2     2  0.481      0.481      1.808e-06 
   1   553   1U    0     9     9  0.481      0.481      2.712e-06 
   1   553   2     0     4     4  0.481      0.481      1.356e-06 
   1   554   1     0     6     6  0.481      0.481      2.034e-06 
   1   555   1     0     4     4  0.481      0.481      2.034e-06 
   1   556   1     0     2     2  0.482      0.482      2.034e-06 
   1   557   1     0     8     8  0.482      0.482      3.051e-06 
   1   558   1     0     4     4  0.482      0.482      3.051e-06 
   1   559   1     0     6     6  0.482      0.482      3.051e-06 
   1   560   1     0     6     6  0.482      0.482      3.051e-06 
   1   561   1     0     8     8  0.482      0.482      3.051e-06 
   1   562   1     0     6     6  0.482      0.482      3.051e-06 
   1   563   1     0     4     4  0.482      0.482      3.051e-06 
   1   564   1     0     4     4  0.482      0.482      3.051e-06 
   1   565   1     0     4     4  0.482      0.482      4.577e-06 
   1   566   1     0     8     8  0.482      0.482      6.865e-06 
   1   567   1     0     6     6  0.482      0.482      6.865e-06 
   1   568   1     0     4     4  0.482      0.482      6.865e-06 
   1   569   1     0     4     4  0.482      0.482      6.865e-06 
   1   570   1     0     4     4  0.482      0.482      1.030e-05 
   1   571   1     0     4     4  0.482      0.482      1.545e-05 
   1   572   1     0     6     6  0.482      0.482      2.317e-05 
   1   573   1     0     4     4  0.482      0.482      2.317e-05 
   1   574   1     0     3     3  0.482      0.482      2.317e-05 
   1   575   1     0     1     1  0.482      0.482      3.476e-05 
   1   576   1     0    10    10  0.482      0.482      5.213e-05 
   1   577   1     0     9     9  0.482      0.482      5.213e-05 
   1   578   1     0     5     5  0.482      0.482      5.213e-05 
   1   579   1     0     3     3  0.482      0.482      5.213e-05 
   1   580   1     0     3     3  0.482      0.482      5.213e-05 
   1   581   1     0     4     4  0.482      0.482      7.820e-05 
   1   582   1     0     1     1  0.482      0.482      0.0001173 
   1   583   1     0     4     4  0.482      0.482      0.0001760 
   1   584   1     0     3     3  0.483      0.483      0.0002639 
   1   585   1     0     4     4  0.483      0.483      0.0003959 
   1   586   1     0     3     3  0.484      0.484      0.0005938 
   1   587   1U    0    16    16  0.484      0.484      0.0008907 
   1   587   2     0     2     2  0.484      0.484      0.0002227 
   1   588   1     0     2     2  0.484      0.484      0.0003340 
   1   589   1U    0     6     6  0.484      0.484      0.0005010 
   1   589   2     0     2     2  0.484      0.484      0.0001253 
   1   590   1U    0    10    10  0.484      0.484      0.0001879 
   1   590   2     0     2     2  0.484      0.484      9.395e-05 
   1   591   1U    0     9     9  0.484      0.484      0.0001409 
   1   591   2U    0     9     9  0.484      0.484      7.046e-05 
   1   591   3     0     2     2  0.484      0.484      3.523e-05 
   1   592   1U    0     9     9  0.484      0.484      5.284e-05 
   1   592   2U    0     9     9  0.484      0.484      2.642e-05 
   1   592   3     0     2     2  0.484      0.484      1.321e-05 
   1   593   1U    0     9     9  0.484      0.484      1.982e-05 
   1   593   2U    0     9     9  0.484      0.484      9.908e-06 
   1   593   3     0     4     4  0.484      0.484      4.954e-06 
   1   594   1U    0     9     9  0.484      0.484      7.431e-06 
   1   594   2U    0     9     9  0.484      0.484      3.716e-06 
   1   594   3     0     8     8  0.484      0.484      1.858e-06 
   1   595   1     0     8     8  0.484      0.484      1.858e-06 
   1   596   1     0     2     2  0.484      0.484      1.858e-06 
   1   597   1     0     2     2  0.484      0.484      1.858e-06 
   1   598   1     0     4     4  0.484      0.484      2.787e-06 
   1   599   1     0     8     8  0.484      0.484      4.180e-06 
   1   600   1U    0     9     9  0.484      0.484      4.180e-06 
   1   600   2     0     4     4  0.484      0.484      2.090e-06 
   1   601   1     0     4     4  0.484      0.484      2.090e-06 
   1   602   1     0     6     6  0.484      0.484      3.135e-06 
   1   603   1     0     6     6  0.484      0.484      3.135e-06 
   1   604   1     0     6     6  0.484      0.484      3.135e-06 
   1   605   1     0     6     6  0.484      0.484      3.135e-06 
   1   606   1     0     4     4  0.484      0.484      3.135e-06 
   1   607   1     0     6     6  0.484      0.484      3.135e-06 
   1   608   1     0     6     6  0.484      0.484      3.135e-06 
   1   609   1     0     4     4  0.484      0.484      3.135e-06 
   1   610   1     0     4     4  0.484      0.484      3.135e-06 
   1   611   1     0     4     4  0.484      0.484      4.703e-06 
   1   612   1     0     8     8  0.484      0.484      7.054e-06 
   1   613   1     0     6     6  0.484      0.484      7.054e-06 
   1   614   1     0     6     6  0.484      0.484      7.054e-06 
   1   615   1     0     2     2  0.484      0.484      7.054e-06 
   1   616   1     0     4     4  0.484      0.484      7.054e-06 
   1   617   1     0     2     2  0.485      0.485      1.058e-05 
   1   618   1     0     4     4  0.485      0.485      1.587e-05 
   1   619   1     0     6     6  0.485      0.485      2.381e-05 
   1   620   1     0     4     4  0.485      0.485      2.381e-05 
   1   621   1     0     3     3  0.485      0.485      2.381e-05 
   1   622   1     0     1     1  0.485      0.485      3.571e-05 
   1   623   1     0    10    10  0.485      0.485      5.357e-05 
   1   624   1     0     9     9  0.485      0.485      5.357e-05 
   1   625   1     0     5     5  0.485      0.485      5.357e-05 
   1   626   1     0     4     4  0.485      0.485      5.357e-05 
   1   627   1     0     2     2  0.485      0.485      5.357e-05 
   1   628   1     0     4     4  0.485      0.485      8.035e-05 
   1   629   1     0     1     1  0.485      0.485      0.0001205 
   1   630   1     0     5     5  0.485      0.485      0.0001808 
   1   631   1     0     3     3  0.485      0.485      0.0001808 
   1   632   1     0     3     3  0.486      0.486      0.0001808 
   1   633   1     0     3     3  0.486      0.486      0.0002712 
   1   634   1     0     3     3  0.486      0.486      0.0004068 
   1   635   1     0     3     3  0.487      0.487      0.0006101 
   1   636   1U    0     8     8  0.487      0.487      0.0009152 
   1   636   2     0     2     2  0.487      0.487      0.0002288 
   1   637   1     0     3     3  0.487      0.487      0.0003432 
   1   638   1U    0    16    16  0.487      0.487      0.0005148 
   1   638   2U    0    16    16  0.487      0.487      0.0001287 
   1   638   3     0     4     4  0.488      0.488      3.218e-05 
   1   639   1U    0     9     9  0.488      0.488      4.826e-05 
   1   639   2     0     2     2  0.488      0.488      2.413e-05 
   1   640   1U    0     9     9  0.488      0.488      3.620e-05 
   1   640   2U    0     9     9  0.488      0.488      1.810e-05 
   1   640   3     0     2     2  0.488      0.488      9.049e-06 
   1   641   1U    0     9     9  0.488      0.488      1.357e-05 
   1   641   2     0     3     3  0.488      0.488      6.787e-06 
   1   642   1U    0     9     9  0.488      0.488      1.018e-05 
   1   642   2     0    10    10  0.488      0.488      5.090e-06 
   1   643   1U    0     9     9  0.488      0.488      5.090e-06 
   1   643   2U    0     9     9  0.488      0.488      2.545e-06 
   1   643   3U    0     9     9  0.488      0.488      1.273e-06 
   1   643   4     0    10    10  0.488      0.488      6.363e-07 
   1   644   1     0     1     1  0.488      0.488      6.363e-07 
   1   645   1     0     1     1  0.488      0.488      6.363e-07 
   1   646   1U    0     9     9  0.488      0.488      9.544e-07 
   1   646   2     0     9     9  0.488      0.488      4.772e-07 
   1   647   1     0    12    12  0.488      0.488      4.772e-07 
   1   648   1     0     4     4  0.488      0.488      3.579e-07 
   1   649   1     0     1     1  0.488      0.488      3.579e-07 
   1   650   1U    0     9     9  0.488      0.488      5.369e-07 
   1   650   2     0     3     3  0.488      0.488      2.684e-07 
   1   651   1     0    14    14  0.488      0.488      4.026e-07 
   1   652   1     0     3     3  0.488      0.488      3.020e-07 
   1   653   1     0     9     9  0.488      0.488      3.020e-07 
   1   654   1     0    10    10  0.488      0.488      3.020e-07 
   1   655   1     0     3     3  0.488      0.488      3.020e-07 
   1   656   1     0     6     6  0.488      0.488      3.020e-07 
   1   657   1     0     3     3  0.488      0.488      3.020e-07 
   1   658   1     0     7     7  0.488      0.488      3.020e-07 
   1   659   1     0     9     9  0.488      0.488      3.020e-07 
   1   660   1     0     9     9  0.488      0.488      3.020e-07 
   1   661   1     0     9     9  0.488      0.488      3.020e-07 
   1   662   1     0     9     9  0.488      0.488      3.020e-07 
   1   663   1     0     9     9  0.488      0.488      3.020e-07 
   1   664   1     0     9     9  0.488      0.488      3.020e-07 
   1   665   1     0     8     8  0.488      0.488      3.020e-07 
   1   666   1     0     3     3  0.488      0.488      3.020e-07 
   1   667   1     0     5     5  0.488      0.488      3.020e-07 
   1   668   1     0     7     7  0.488      0.488      3.020e-07 
   1   669   1     0     9     9  0.488      0.488      3.020e-07 
   1   670   1     0     8     8  0.488      0.488      3.020e-07 
   1   671   1     0     3     3  0.488      0.488      3.020e-07 
   1   672   1     0     5     5  0.488      0.488      3.020e-07 
   1   673   1     0     6     6  0.488      0.488      3.020e-07 
   1   674   1     0     3     3  0.488      0.488      3.020e-07 
   1   675   1     0     5     5  0.488      0.488      3.020e-07 
   1   676   1     0     6     6  0.488      0.488      3.020e-07 
   1   677   1     0     3     3  0.488      0.488      3.020e-07 
   1   678   1     0     5     5  0.488      0.488      3.020e-07 
   1   679   1     0     5     5  0.488      0.488      3.020e-07 
   1   680   1     0     7     7  0.488      0.488      3.020e-07 
   1   681   1     0     7     7  0.488      0.488      3.020e-07 
   1   682   1     0     7     7  0.488      0.488      3.020e-07 
   1   683   1     0     7     7  0.488      0.488      3.020e-07 
   1   684   1     0     7     7  0.488      0.488      3.020e-07 
   1   685   1     0     7     7  0.488      0.488      3.020e-07 
   1   686   1     0     7     7  0.488      0.488      3.020e-07 
   1   687   1     0     7     7  0.488      0.488      3.020e-07 
   1   688   1     0     5     5  0.488      0.488      3.020e-07 
   1   689   1     0     7     7  0.488      0.488      3.020e-07 
   1   690   1     0     7     7  0.488      0.488      3.020e-07 
   1   691   1     0     6     6  0.488      0.488      3.020e-07 
   1   692   1     0     3     3  0.488      0.488      3.020e-07 
   1   693   1     0     3     3  0.488      0.488      3.020e-07 
   1   694   1     0     7     7  0.488      0.488      4.530e-07 
   1   695   1     0     9     9  0.488      0.488      4.530e-07 
   1   696   1U    0    10    10  0.488      0.488      4.530e-07 
   1   696   2     0     3     3  0.488      0.488      2.265e-07 
   1   697   1     0     2     2  0.488      0.488      2.265e-07 
   1   698   1     0     1     1  0.488      0.488      3.397e-07 
   1   699   1     0     3     3  0.488      0.488      5.096e-07 
   1   700   1     0     9     9  0.488      0.488      7.644e-07 
   1   701   1     0    13    13  0.488      0.488      7.644e-07 
   1   702   1     0    13    13  0.488      0.488      5.733e-07 
   1   703   1U    0     9     9  0.488      0.488      4.300e-07 
   1   703   2     0     8     8  0.488      0.488      2.150e-07 
   1   704   1     0     8     8  0.488      0.488      2.150e-07 
   1   705   1     0     4     4  0.488      0.488      2.150e-07 
   1   706   1     0     6     6  0.488      0.488      2.150e-07 
   1   707   1     0     4     4  0.488      0.488      2.150e-07 
   1   708   1     0     4     4  0.488      0.488      2.150e-07 
   1   709   1     0     6     6  0.488      0.488      3.225e-07 
   1   710   1     0     3     3  0.488      0.488      3.225e-07 
   1   711   1     0     3     3  0.488      0.488      3.225e-07 
   1   712   1     0     6     6  0.488      0.488      4.837e-07 
   1   713   1     0     1     1  0.488      0.488      4.837e-07 
   1   714   1     0    11    11  0.488      0.488      4.837e-07 
   1   715   1     0     7     7  0.488      0.488      3.628e-07 
   1   716   1     0     7     7  0.488      0.488      3.628e-07 
   1   717   1     0     5     5  0.488      0.488      3.628e-07 
   1   718   1     0     5     5  0.488      0.488      3.628e-07 
   1   719   1     0     6     6  0.488      0.488      3.628e-07 
   1   720   1     0     1     1  0.488      0.488      3.628e-07 
   1   721   1     0     7     7  0.488      0.488      3.628e-07 
   1   722   1     0     5     5  0.488      0.488      3.628e-07 
   1   723   1     0     5     5  0.488      0.488      3.628e-07 
   1   724   1     0     5     5  0.488      0.488      3.628e-07 
   1   725   1     0     3     3  0.488      0.488      3.628e-07 
   1   726   1     0     6     6  0.488      0.488      3.628e-07 
   1   727   1     0     1     1  0.488      0.488      3.628e-07 
   1   728   1     0     5     5  0.488      0.488      3.628e-07 
   1   729   1     0     4     4  0.488      0.488      3.628e-07 
   1   730   1     0     1     1  0.488      0.488      3.628e-07 
   1   731   1     0     7     7  0.488      0.488      5.442e-07 
   1   732   1     0     6     6  0.488      0.488      5.442e-07 
   1   733   1     0     1     1  0.488      0.488      5.442e-07 
   1   734   1     0     7     7  0.488      0.488      5.442e-07 
   1   735   1     0     8     8  0.488      0.488      5.442e-07 
   1   736   1     0     1     1  0.488      0.488      5.442e-07 
   1   737   1     0     5     5  0.488      0.488      5.442e-07 
   1   738   1     0     6     6  0.488      0.488      5.442e-07 
   1   739   1     0     1     1  0.488      0.488      5.442e-07 
   1   740   1     0     7     7  0.488      0.488      5.442e-07 
   1   741   1     0     6     6  0.488      0.488      5.442e-07 
   1   742   1     0     1     1  0.488      0.488      5.442e-07 
   1   743   1     0     5     5  0.488      0.488      5.442e-07 
   1   744   1     0     6     6  0.488      0.488      5.442e-07 
   1   745   1     0     1     1  0.488      0.488      5.442e-07 
   1   746   1     0     5     5  0.488      0.488      5.442e-07 
   1   747   1     0     4     4  0.488      0.488      5.442e-07 
   1   748   1     0     1     1  0.488      0.488      5.442e-07 
   1   749   1     0     7     7  0.488      0.488      8.163e-07 
   1   750   1     0     7     7  0.488      0.488      8.163e-07 
   1   751   1     0     5     5  0.488      0.488      8.163e-07 
   1   752   1     0     8     8  0.488      0.488      8.163e-07 
   1   753   1     0     1     1  0.488      0.488      8.163e-07 
   1   754   1     0     3     3  0.488      0.488      8.163e-07 
   1   755   1     0     8     8  0.488      0.488      1.224e-06 
   1   756   1     0     2     2  0.488      0.488      1.224e-06 
   1   757   1     0     2     2  0.488      0.488      1.224e-06 
   1   758   1     0     1     1  0.488      0.488      1.837e-06 
   1   759   1     0     1     1  0.488      0.488      2.755e-06 
   1   760   1U    0     9     9  0.488      0.488      4.132e-06 
   1   760   2     0     4     4  0.488      0.488      2.066e-06 
   1   761   1     0     4     4  0.488      0.488      3.099e-06 
   1   762   1     0     2     2  0.488      0.488      4.649e-06 
   1   763   1     0     4     4  0.488      0.488      6.974e-06 
   1   764   1     0     6     6  0.488      0.488      1.046e-05 
   1   765   1     0     6     6  0.488      0.488      1.046e-05 
   1   766   1     0     4     4  0.488      0.488      1.046e-05 
   1   767   1     0     2     2  0.488      0.488      1.046e-05 
   1   768   1     0     4     4  0.488      0.488      1.569e-05 
   1   769   1     0     4     4  0.488      0.488      2.354e-05 
   1   770   1     0     6     6  0.488      0.488      3.530e-05 
   1   771   1     0     5     5  0.488      0.488      3.530e-05 
   1   772   1     0     1     1  0.488      0.488      3.530e-05 
   1   773   1     0    11    11  0.488      0.488      3.530e-05 
   1   774   1U    0    10    10  0.488      0.488      2.648e-05 
   1   774   2     0     7     7  0.488      0.488      1.324e-05 
   1   775   1     0     7     7  0.488      0.488      1.324e-05 
   1   776   1     0    11    11  0.488      0.488      1.324e-05 
   1   777   1     0     9     9  0.488      0.488      9.929e-06 
   1   778   1     0     6     6  0.488      0.488      9.929e-06 
   1   779   1     0     6     6  0.488      0.488      9.929e-06 
   1   780   1     0     6     6  0.488      0.488      9.929e-06 
   1   781   1     0     7     7  0.488      0.488      9.929e-06 
   1   782   1     0     4     4  0.488      0.488      9.929e-06 
   1   783   1     0     5     5  0.488      0.488      9.929e-06 
   1   784   1     0     5     5  0.488      0.488      9.929e-06 
   1   785   1     0     3     3  0.488      0.488      9.929e-06 
   1   786   1     0     1     1  0.488      0.488      9.929e-06 
   1   787   1     0     3     3  0.488      0.488      1.489e-05 
   1   788   1     0     1     1  0.488      0.488      2.234e-05 
   1   789   1     0     3     3  0.488      0.488      3.351e-05 
   1   790   1     0     3     3  0.488      0.488      5.027e-05 
   1   791   1     0     4     4  0.488      0.488      7.540e-05 
   1   792   1     0     1     1  0.488      0.488      0.0001131 
   1   793   1     0     4     4  0.488      0.488      0.0001696 
   1   794   1     0     3     3  0.489      0.489      0.0002545 
   1   795   1     0     4     4  0.489      0.489      0.0003817 
   1   796   1     0     3     3  0.490      0.490      0.0005726 
   1   797   1     0     4     4  0.491      0.491      0.0008588 
   1   798   1U    0     6     6  0.491      0.491      0.001000  
   1   798   2     0     2     2  0.491      0.491      0.0002500 
   1   799   1U    0    16    16  0.491      0.491      0.0003750 
   1   799   2     0     2     2  0.491      0.491      9.375e-05 
   1   800   1U    0    16    16  0.491      0.491      0.0001406 
   1   800   2     0     2     2  0.491      0.491      3.516e-05 
   1   801   1     0     2     2  0.491      0.491      5.273e-05 
   1   802   1U    0     9     9  0.491      0.491      7.910e-05 
   1   802   2U    0     9     9  0.491      0.491      3.955e-05 
   1   802   3     0     2     2  0.491      0.491      1.978e-05 
   1   803   1U    0     9     9  0.491      0.491      2.966e-05 
   1   803   2U    0     9     9  0.491      0.491      1.483e-05 
   1   803   3     0     4     4  0.491      0.491      7.416e-06 
   1   804   1U    0     9     9  0.491      0.491      1.112e-05 
   1   804   2U    0     9     9  0.491      0.491      5.562e-06 
   1   804   3U    0     9     9  0.491      0.491      2.781e-06 
   1   804   4     0     4     4  0.491      0.491      1.390e-06 
   1   805   1U    0     9     9  0.491      0.491      2.086e-06 
   1   805   2     0     4     4  0.491      0.491      1.043e-06 
   1   806   1     0     4     4  0.491      0.491      1.564e-06 
   1   807   1     0     2     2  0.491      0.491      2.346e-06 
   1   808   1     0     2     2  0.491      0.491      3.520e-06 
   1   809   1     0     8     8  0.491      0.491      5.279e-06 
   1   810   1U    0     9     9  0.491      0.491      5.279e-06 
   1   810   2     0     6     6  0.491      0.491      2.640e-06 
   1   811   1     0     4     4  0.491      0.491      2.640e-06 
   1   812   1     0     2     2  0.491      0.491      2.640e-06 
   1   813   1     0     8     8  0.491      0.491      3.960e-06 
   1   814   1     0     6     6  0.491      0.491      3.960e-06 
   1   815   1     0     8     8  0.491      0.491      3.960e-06 
   1   816   1     0     6     6  0.491      0.491      3.960e-06 
   1   817   1     0     6     6  0.491      0.491      3.960e-06 
   1   818   1     0     8     8  0.491      0.491      3.960e-06 
   1   819   1     0     6     6  0.491      0.491      3.960e-06 
   1   820   1     0     6     6  0.491      0.491      3.960e-06 
   1   821   1     0     6     6  0.491      0.491      3.960e-06 
   1   822   1     0     2     2  0.491      0.491      3.960e-06 
   1   823   1     0     4     4  0.491      0.491      3.960e-06 
   1   824   1     0     6     6  0.491      0.491      5.939e-06 
   1   825   1     0     6     6  0.491      0.491      5.939e-06 
   1   826   1     0     2     2  0.491      0.491      5.939e-06 
   1   827   1     0     4     4  0.491      0.491      5.939e-06 
   1   828   1     0     4     4  0.491      0.491      8.909e-06 
   1   829   1     0     4     4  0.491      0.491      1.336e-05 
   1   830   1     0     8     8  0.491      0.491      2.005e-05 
   1   831   1     0     4     4  0.491      0.491      2.005e-05 
   1   832   1     0     4     4  0.491      0.491      2.005e-05 
   1   833   1     0     4     4  0.491      0.491      3.007e-05 
   1   834   1     0     7     7  0.491      0.491      4.510e-05 
   1   835   1     0     1     1  0.491      0.491      4.510e-05 
   1   836   1     0     8     8  0.491      0.491      4.510e-05 
   1   837   1     0    11    11  0.491      0.491      4.510e-05 
   1   838   1     0     5     5  0.491      0.491      3.383e-05 
   1   839   1     0     5     5  0.491      0.491      3.383e-05 
   1   840   1     0     3     3  0.491      0.491      3.383e-05 
   1   841   1     0     3     3  0.492      0.492      3.383e-05 
   1   842   1     0     4     4  0.492      0.492      5.074e-05 
   1   843   1     0     1     1  0.492      0.492      7.611e-05 
   1   844   1     0     2     2  0.492      0.492      0.0001142 
   1   845   1     0     4     4  0.492      0.492      0.0001712 
   1   846   1     0     4     4  0.492      0.492      0.0002569 
   1   847   1     0     4     4  0.493      0.493      0.0003853 
   1   848   1     0     4     4  0.493      0.493      0.0005780 
   1   849   1     0     4     4  0.494      0.494      0.0008669 
   1   850   1U    0    16    16  0.494      0.494      0.001000  
   1   850   2     0     2     2  0.494      0.494      0.0002500 
   1   851   1     0     2     2  0.495      0.495      0.0003750 
   1   852   1U    0    16    16  0.495      0.495      0.0005625 
   1   852   2     0     3     3  0.495      0.495      0.0001406 
   1   853   1U    0     9     9  0.495      0.495      0.0002109 
   1   853   2U    0     9     9  0.495      0.495      0.0001055 
   1   853   3U    0     9     9  0.495      0.495      5.273e-05 
   1   853   4U    0     9     9  0.495      0.495      2.637e-05 
   1   853   5     0    10    10  0.495      0.495      1.318e-05 
   1   854   1     0    10    10  0.495      0.495      1.318e-05 
   1   855   1     0    14    14  0.495      0.495      1.318e-05 
   1   856   1U    0     9     9  0.495      0.495      9.888e-06 
   1   856   2U    0     9     9  0.495      0.495      4.944e-06 
   1   856   3U    0     9     9  0.495      0.495      2.472e-06 
   1   856   4U    0     9     9  0.495      0.495      1.236e-06 
   1   856   5U    0     9     9  0.495      0.495      6.180e-07 
   1   856   6U    0     9     9  0.495      0.495      6.180e-07 
                          
 THE ANALYSIS HAS NOT BEEN COMPLETED
