 Abaqus/Standard 2023.HF4                  DATE 20-May-2024 TIME 19:03:17
 SUMMARY OF JOB INFORMATION:
 STEP  INC ATT SEVERE EQUIL TOTAL  TOTAL      STEP       INC OF       DOF    IF
               DISCON ITERS ITERS  TIME/    TIME/LPF    TIME/LPF    MONITOR RIKS
               ITERS               FREQ
   1     1   1     0     1     1  500.       500.       500.0     
   1     2   1     0     2     2  1.00e+03   1.00e+03   500.0     
   1     3   1     0     1     1  1.50e+03   1.50e+03   500.0     
   1     4   1     0     1     1  2.50e+03   2.50e+03   1000.     
   1     5   1     0     1     1  3.50e+03   3.50e+03   1000.     
   1     6   1     0     1     1  4.50e+03   4.50e+03   1000.     
   1     7   1     0     1     1  5.50e+03   5.50e+03   1000.     
   1     8   1     0     1     1  6.50e+03   6.50e+03   1000.     
   1     9   1     0     1     1  7.50e+03   7.50e+03   1000.     
   1    10   1     0     1     1  8.50e+03   8.50e+03   1000.     
   1    11   1     0     1     1  9.50e+03   9.50e+03   1000.     
   1    12   1     0     1     1  1.05e+04   1.05e+04   1000.     
   1    13   1     0     1     1  1.15e+04   1.15e+04   1000.     
   1    14   1     0     1     1  1.25e+04   1.25e+04   1000.     
   1    15   1     0     1     1  1.35e+04   1.35e+04   1000.     
   1    16   1     0     1     1  1.45e+04   1.45e+04   1000.     
   1    17   1     0     1     1  1.55e+04   1.55e+04   1000.     
   1    18   1     0     1     1  1.65e+04   1.65e+04   1000.     
   1    19   1     0     1     1  1.75e+04   1.75e+04   1000.     
   1    20   1     0     1     1  1.85e+04   1.85e+04   1000.     
   1    21   1     0     1     1  1.95e+04   1.95e+04   1000.     
   1    22   1     0     1     1  2.05e+04   2.05e+04   1000.     
   1    23   1     0     1     1  2.15e+04   2.15e+04   1000.     
   1    24   1     0     1     1  2.25e+04   2.25e+04   1000.     
   1    25   1     0     1     1  2.35e+04   2.35e+04   1000.     
   1    26   1     0     1     1  2.45e+04   2.45e+04   1000.     
   1    27   1     0     1     1  2.55e+04   2.55e+04   1000.     
   1    28   1     0     1     1  2.65e+04   2.65e+04   1000.     
   1    29   1     0     1     1  2.75e+04   2.75e+04   1000.     
   1    30   1     0     1     1  2.85e+04   2.85e+04   1000.     
   1    31   1     0     1     1  2.95e+04   2.95e+04   1000.     
   1    32   1     0     1     1  3.05e+04   3.05e+04   1000.     
   1    33   1     0     1     1  3.15e+04   3.15e+04   1000.     
   1    34   1     0     1     1  3.25e+04   3.25e+04   1000.     
   1    35   1     0     1     1  3.35e+04   3.35e+04   1000.     
   1    36   1     0     1     1  3.45e+04   3.45e+04   1000.     
   1    37   1     0     1     1  3.55e+04   3.55e+04   1000.     
   1    38   1     0     1     1  3.65e+04   3.65e+04   1000.     
   1    39   1     0     1     1  3.75e+04   3.75e+04   1000.     
   1    40   1     0     1     1  3.85e+04   3.85e+04   1000.     
   1    41   1     0     1     1  3.95e+04   3.95e+04   1000.     
   1    42   1     0     1     1  4.05e+04   4.05e+04   1000.     
   1    43   1     0     1     1  4.15e+04   4.15e+04   1000.     
   1    44   1     0     1     1  4.25e+04   4.25e+04   1000.     
   1    45   1     0     1     1  4.35e+04   4.35e+04   1000.     
   1    46   1     0     1     1  4.45e+04   4.45e+04   1000.     
   1    47   1     0     1     1  4.55e+04   4.55e+04   1000.     
   1    48   1     0     1     1  4.65e+04   4.65e+04   1000.     
   1    49   1     0     1     1  4.75e+04   4.75e+04   1000.     
   1    50   1     0     1     1  4.85e+04   4.85e+04   1000.     
   1    51   1     0     1     1  4.95e+04   4.95e+04   1000.     
   1    52   1     0     1     1  5.05e+04   5.05e+04   1000.     
   1    53   1     0     1     1  5.15e+04   5.15e+04   1000.     
   1    54   1     0     1     1  5.25e+04   5.25e+04   1000.     
   1    55   1     0     1     1  5.35e+04   5.35e+04   1000.     
   1    56   1     0     1     1  5.45e+04   5.45e+04   1000.     
   1    57   1     0     1     1  5.55e+04   5.55e+04   1000.     
   1    58   1     0     1     1  5.65e+04   5.65e+04   1000.     
   1    59   1     0     1     1  5.75e+04   5.75e+04   1000.     
   1    60   1     0     1     1  5.85e+04   5.85e+04   1000.     
   1    61   1     0     1     1  5.95e+04   5.95e+04   1000.     
   1    62   1     0     1     1  6.05e+04   6.05e+04   1000.     
   1    63   1     0     1     1  6.15e+04   6.15e+04   1000.     
   1    64   1     0     1     1  6.25e+04   6.25e+04   1000.     
   1    65   1     0     1     1  6.35e+04   6.35e+04   1000.     
   1    66   1     0     1     1  6.45e+04   6.45e+04   1000.     
   1    67   1     0     1     1  6.55e+04   6.55e+04   1000.     
   1    68   1     0     1     1  6.65e+04   6.65e+04   1000.     
   1    69   1     0     1     1  6.75e+04   6.75e+04   1000.     
   1    70   1     0     1     1  6.85e+04   6.85e+04   1000.     
   1    71   1     0     1     1  6.95e+04   6.95e+04   1000.     
   1    72   1     0     1     1  7.05e+04   7.05e+04   1000.     
   1    73   1     0     1     1  7.15e+04   7.15e+04   1000.     
   1    74   1     0     1     1  7.25e+04   7.25e+04   1000.     
   1    75   1     0     1     1  7.35e+04   7.35e+04   1000.     
   1    76   1     0     1     1  7.45e+04   7.45e+04   1000.     
   1    77   1     0     1     1  7.55e+04   7.55e+04   1000.     
   1    78   1     0     1     1  7.65e+04   7.65e+04   1000.     
   1    79   1     0     1     1  7.75e+04   7.75e+04   1000.     
   1    80   1     0     1     1  7.85e+04   7.85e+04   1000.     
   1    81   1     0     1     1  7.95e+04   7.95e+04   1000.     
   1    82   1     0     1     1  8.05e+04   8.05e+04   1000.     
   1    83   1     0     1     1  8.15e+04   8.15e+04   1000.     
   1    84   1     0     1     1  8.25e+04   8.25e+04   1000.     
   1    85   1     0     1     1  8.35e+04   8.35e+04   1000.     
   1    86   1     0     1     1  8.45e+04   8.45e+04   1000.     
   1    87   1     0     1     1  8.55e+04   8.55e+04   1000.     
   1    88   1     0     1     1  8.65e+04   8.65e+04   1000.     
   1    89   1     0     1     1  8.75e+04   8.75e+04   1000.     
   1    90   1     0     1     1  8.85e+04   8.85e+04   1000.     
   1    91   1     0     1     1  8.95e+04   8.95e+04   1000.     
   1    92   1     0     1     1  9.05e+04   9.05e+04   1000.     
   1    93   1     0     1     1  9.15e+04   9.15e+04   1000.     
   1    94   1     0     1     1  9.25e+04   9.25e+04   1000.     
   1    95   1     0     1     1  9.35e+04   9.35e+04   1000.     
   1    96   1     0     1     1  9.45e+04   9.45e+04   1000.     
   1    97   1     0     1     1  9.55e+04   9.55e+04   1000.     
   1    98   1     0     1     1  9.65e+04   9.65e+04   1000.     
   1    99   1     0     1     1  9.75e+04   9.75e+04   1000.     
   1   100   1     0     1     1  9.85e+04   9.85e+04   1000.     
   1   101   1     0     1     1  9.95e+04   9.95e+04   1000.     
   1   102   1     0     1     1  1.00e+05   1.00e+05   1000.     
   1   103   1     0     1     1  1.02e+05   1.02e+05   1000.     
   1   104   1     0     1     1  1.02e+05   1.02e+05   1000.     
   1   105   1     0     1     1  1.04e+05   1.04e+05   1000.     
   1   106   1     0     1     1  1.04e+05   1.04e+05   1000.     
   1   107   1     0     1     1  1.06e+05   1.06e+05   1000.     
   1   108   1     0     1     1  1.06e+05   1.06e+05   1000.     
   1   109   1     0     1     1  1.08e+05   1.08e+05   1000.     
   1   110   1     0     1     1  1.08e+05   1.08e+05   1000.     
   1   111   1     0     1     1  1.10e+05   1.10e+05   1000.     
   1   112   1     0     1     1  1.10e+05   1.10e+05   1000.     
   1   113   1     0     1     1  1.12e+05   1.12e+05   1000.     
   1   114   1     0     1     1  1.12e+05   1.12e+05   1000.     
   1   115   1     0     1     1  1.14e+05   1.14e+05   1000.     
   1   116   1     0     1     1  1.14e+05   1.14e+05   1000.     
   1   117   1     0     1     1  1.16e+05   1.16e+05   1000.     
   1   118   1     0     1     1  1.16e+05   1.16e+05   1000.     
   1   119   1     0     1     1  1.18e+05   1.18e+05   1000.     
   1   120   1     0     1     1  1.18e+05   1.18e+05   1000.     
   1   121   1     0     1     1  1.20e+05   1.20e+05   1000.     
   1   122   1     0     1     1  1.20e+05   1.20e+05   1000.     
   1   123   1     0     1     1  1.22e+05   1.22e+05   1000.     
   1   124   1     0     1     1  1.22e+05   1.22e+05   1000.     
   1   125   1     0     1     1  1.24e+05   1.24e+05   1000.     
   1   126   1     0     1     1  1.24e+05   1.24e+05   1000.     
   1   127   1     0     1     1  1.26e+05   1.26e+05   1000.     
   1   128   1     0     1     1  1.26e+05   1.26e+05   1000.     
   1   129   1     0     1     1  1.28e+05   1.28e+05   1000.     
   1   130   1     0     1     1  1.28e+05   1.28e+05   1000.     
   1   131   1     0     1     1  1.30e+05   1.30e+05   1000.     
   1   132   1     0     1     1  1.30e+05   1.30e+05   1000.     
   1   133   1     0     1     1  1.32e+05   1.32e+05   1000.     
   1   134   1     0     1     1  1.32e+05   1.32e+05   1000.     
   1   135   1     0     1     1  1.34e+05   1.34e+05   1000.     
   1   136   1     0     1     1  1.34e+05   1.34e+05   1000.     
   1   137   1     0     1     1  1.36e+05   1.36e+05   1000.     
   1   138   1     0     1     1  1.36e+05   1.36e+05   1000.     
   1   139   1     0     1     1  1.38e+05   1.38e+05   1000.     
   1   140   1     0     1     1  1.38e+05   1.38e+05   1000.     
   1   141   1     0     1     1  1.40e+05   1.40e+05   1000.     
   1   142   1     0     1     1  1.40e+05   1.40e+05   1000.     
   1   143   1     0     1     1  1.42e+05   1.42e+05   1000.     
   1   144   1     0     1     1  1.42e+05   1.42e+05   1000.     
   1   145   1     0     1     1  1.44e+05   1.44e+05   1000.     
   1   146   1     0     1     1  1.44e+05   1.44e+05   1000.     
   1   147   1     0     1     1  1.46e+05   1.46e+05   1000.     
   1   148   1     0     1     1  1.46e+05   1.46e+05   1000.     
   1   149   1     0     1     1  1.48e+05   1.48e+05   1000.     
   1   150   1     0     1     1  1.48e+05   1.48e+05   1000.     
   1   151   1     0     1     1  1.50e+05   1.50e+05   1000.     
   1   152   1     0     1     1  1.50e+05   1.50e+05   1000.     
   1   153   1     0     1     1  1.52e+05   1.52e+05   1000.     
   1   154   1     0     1     1  1.52e+05   1.52e+05   1000.     
   1   155   1     0     1     1  1.54e+05   1.54e+05   1000.     
   1   156   1     0     1     1  1.54e+05   1.54e+05   1000.     
   1   157   1     0     1     1  1.56e+05   1.56e+05   1000.     
   1   158   1     0     1     1  1.56e+05   1.56e+05   1000.     
   1   159   1     0     1     1  1.58e+05   1.58e+05   1000.     
   1   160   1     0     1     1  1.58e+05   1.58e+05   1000.     
   1   161   1     0     1     1  1.60e+05   1.60e+05   1000.     
   1   162   1     0     1     1  1.60e+05   1.60e+05   1000.     
   1   163   1     0     1     1  1.62e+05   1.62e+05   1000.     
   1   164   1     0     1     1  1.62e+05   1.62e+05   1000.     
   1   165   1     0     1     1  1.64e+05   1.64e+05   1000.     
   1   166   1     0     1     1  1.64e+05   1.64e+05   1000.     
   1   167   1     0     1     1  1.66e+05   1.66e+05   1000.     
   1   168   1     0     1     1  1.66e+05   1.66e+05   1000.     
   1   169   1     0     1     1  1.68e+05   1.68e+05   1000.     
   1   170   1     0     1     1  1.68e+05   1.68e+05   1000.     
   1   171   1     0     1     1  1.70e+05   1.70e+05   1000.     
   1   172   1     0     1     1  1.70e+05   1.70e+05   1000.     
   1   173   1     0     1     1  1.72e+05   1.72e+05   1000.     
   1   174   1     0     1     1  1.72e+05   1.72e+05   1000.     
   1   175   1     0     1     1  1.74e+05   1.74e+05   1000.     
   1   176   1     0     1     1  1.74e+05   1.74e+05   1000.     
   1   177   1     0     1     1  1.76e+05   1.76e+05   1000.     
   1   178   1     0     1     1  1.76e+05   1.76e+05   1000.     
   1   179   1     0     1     1  1.78e+05   1.78e+05   1000.     
   1   180   1     0     1     1  1.78e+05   1.78e+05   1000.     
   1   181   1     0     1     1  1.80e+05   1.80e+05   1000.     
   1   182   1     0     1     1  1.80e+05   1.80e+05   1000.     
   1   183   1     0     1     1  1.82e+05   1.82e+05   1000.     
   1   184   1     0     1     1  1.82e+05   1.82e+05   1000.     
   1   185   1     0     1     1  1.84e+05   1.84e+05   1000.     
   1   186   1     0     1     1  1.84e+05   1.84e+05   1000.     
   1   187   1     0     1     1  1.86e+05   1.86e+05   1000.     
   1   188   1     0     1     1  1.86e+05   1.86e+05   1000.     
   1   189   1     0     1     1  1.88e+05   1.88e+05   1000.     
   1   190   1     0     1     1  1.88e+05   1.88e+05   1000.     
   1   191   1     0     1     1  1.90e+05   1.90e+05   1000.     
   1   192   1     0     1     1  1.90e+05   1.90e+05   1000.     
   1   193   1     0     1     1  1.92e+05   1.92e+05   1000.     
   1   194   1     0     1     1  1.92e+05   1.92e+05   1000.     
   1   195   1     0     1     1  1.94e+05   1.94e+05   1000.     
   1   196   1     0     1     1  1.94e+05   1.94e+05   1000.     
   1   197   1     0     1     1  1.96e+05   1.96e+05   1000.     
   1   198   1     0     1     1  1.96e+05   1.96e+05   1000.     
   1   199   1     0     1     1  1.98e+05   1.98e+05   1000.     
   1   200   1     0     1     1  1.98e+05   1.98e+05   1000.     
   1   201   1     0     1     1  2.00e+05   2.00e+05   1000.     
   1   202   1     0     1     1  2.00e+05   2.00e+05   1000.     
   1   203   1     0     1     1  2.02e+05   2.02e+05   1000.     
   1   204   1     0     1     1  2.02e+05   2.02e+05   1000.     
   1   205   1     0     1     1  2.04e+05   2.04e+05   1000.     
   1   206   1     0     1     1  2.04e+05   2.04e+05   1000.     
   1   207   1     0     1     1  2.06e+05   2.06e+05   1000.     
   1   208   1     0     1     1  2.06e+05   2.06e+05   1000.     
   1   209   1     0     1     1  2.08e+05   2.08e+05   1000.     
   1   210   1     0     1     1  2.08e+05   2.08e+05   1000.     
   1   211   1     0     1     1  2.10e+05   2.10e+05   1000.     
   1   212   1     0     1     1  2.10e+05   2.10e+05   1000.     
   1   213   1     0     1     1  2.12e+05   2.12e+05   1000.     
   1   214   1     0     1     1  2.12e+05   2.12e+05   1000.     
   1   215   1     0     1     1  2.14e+05   2.14e+05   1000.     
   1   216   1     0     1     1  2.14e+05   2.14e+05   1000.     
   1   217   1     0     1     1  2.16e+05   2.16e+05   1000.     
   1   218   1     0     1     1  2.16e+05   2.16e+05   1000.     
   1   219   1     0     1     1  2.18e+05   2.18e+05   1000.     
   1   220   1     0     1     1  2.18e+05   2.18e+05   1000.     
   1   221   1     0     1     1  2.20e+05   2.20e+05   1000.     
   1   222   1     0     1     1  2.20e+05   2.20e+05   1000.     
   1   223   1     0     1     1  2.22e+05   2.22e+05   1000.     
   1   224   1     0     1     1  2.22e+05   2.22e+05   1000.     
   1   225   1     0     1     1  2.24e+05   2.24e+05   1000.     
   1   226   1     0     1     1  2.24e+05   2.24e+05   1000.     
   1   227   1     0     1     1  2.26e+05   2.26e+05   1000.     
   1   228   1     0     1     1  2.26e+05   2.26e+05   1000.     
   1   229   1     0     1     1  2.28e+05   2.28e+05   1000.     
   1   230   1     0     1     1  2.28e+05   2.28e+05   1000.     
   1   231   1     0     1     1  2.30e+05   2.30e+05   1000.     
   1   232   1     0     1     1  2.30e+05   2.30e+05   1000.     
   1   233   1     0     1     1  2.32e+05   2.32e+05   1000.     
   1   234   1     0     1     1  2.32e+05   2.32e+05   1000.     
   1   235   1     0     1     1  2.34e+05   2.34e+05   1000.     
   1   236   1     0     1     1  2.34e+05   2.34e+05   1000.     
   1   237   1     0     1     1  2.36e+05   2.36e+05   1000.     
   1   238   1     0     1     1  2.36e+05   2.36e+05   1000.     
   1   239   1     0     1     1  2.38e+05   2.38e+05   1000.     
   1   240   1     0     1     1  2.38e+05   2.38e+05   1000.     
   1   241   1     0     1     1  2.40e+05   2.40e+05   1000.     
   1   242   1     0     1     1  2.40e+05   2.40e+05   1000.     
   1   243   1     0     1     1  2.42e+05   2.42e+05   1000.     
   1   244   1     0     1     1  2.42e+05   2.42e+05   1000.     
   1   245   1     0     1     1  2.44e+05   2.44e+05   1000.     
   1   246   1     0     1     1  2.44e+05   2.44e+05   1000.     
   1   247   1     0     1     1  2.46e+05   2.46e+05   1000.     
   1   248   1     0     1     1  2.46e+05   2.46e+05   1000.     
   1   249   1     0     1     1  2.48e+05   2.48e+05   1000.     
   1   250   1     0     1     1  2.48e+05   2.48e+05   1000.     
   1   251   1     0     1     1  2.50e+05   2.50e+05   1000.     
   1   252   1     0     1     1  2.50e+05   2.50e+05   1000.     
   1   253   1     0     1     1  2.52e+05   2.52e+05   1000.     
   1   254   1     0     1     1  2.52e+05   2.52e+05   1000.     
   1   255   1     0     1     1  2.54e+05   2.54e+05   1000.     
   1   256   1     0     1     1  2.54e+05   2.54e+05   1000.     
   1   257   1     0     1     1  2.56e+05   2.56e+05   1000.     
   1   258   1     0     1     1  2.56e+05   2.56e+05   1000.     
   1   259   1     0     1     1  2.58e+05   2.58e+05   1000.     
   1   260   1     0     1     1  2.58e+05   2.58e+05   1000.     
   1   261   1     0     1     1  2.60e+05   2.60e+05   1000.     
   1   262   1     0     1     1  2.60e+05   2.60e+05   1000.     
   1   263   1     0     1     1  2.62e+05   2.62e+05   1000.     
   1   264   1     0     1     1  2.62e+05   2.62e+05   1000.     
   1   265   1     0     1     1  2.64e+05   2.64e+05   1000.     
   1   266   1     0     1     1  2.64e+05   2.64e+05   1000.     
   1   267   1     0     1     1  2.66e+05   2.66e+05   1000.     
   1   268   1     0     1     1  2.66e+05   2.66e+05   1000.     
   1   269   1     0     1     1  2.68e+05   2.68e+05   1000.     
   1   270   1     0     1     1  2.68e+05   2.68e+05   1000.     
   1   271   1     0     1     1  2.70e+05   2.70e+05   1000.     
   1   272   1     0     1     1  2.70e+05   2.70e+05   1000.     
   1   273   1     0     1     1  2.72e+05   2.72e+05   1000.     
   1   274   1     0     1     1  2.72e+05   2.72e+05   1000.     
   1   275   1     0     1     1  2.74e+05   2.74e+05   1000.     
   1   276   1     0     1     1  2.74e+05   2.74e+05   1000.     
   1   277   1     0     1     1  2.76e+05   2.76e+05   1000.     
   1   278   1     0     1     1  2.76e+05   2.76e+05   1000.     
   1   279   1     0     1     1  2.78e+05   2.78e+05   1000.     
   1   280   1     0     1     1  2.78e+05   2.78e+05   1000.     
   1   281   1     0     1     1  2.80e+05   2.80e+05   1000.     
   1   282   1     0     1     1  2.80e+05   2.80e+05   1000.     
   1   283   1     0     1     1  2.82e+05   2.82e+05   1000.     
   1   284   1     0     1     1  2.82e+05   2.82e+05   1000.     
   1   285   1     0     1     1  2.84e+05   2.84e+05   1000.     
   1   286   1     0     1     1  2.84e+05   2.84e+05   1000.     
   1   287   1     0     1     1  2.86e+05   2.86e+05   1000.     
   1   288   1     0     1     1  2.86e+05   2.86e+05   1000.     
   1   289   1     0     1     1  2.88e+05   2.88e+05   1000.     
   1   290   1     0     1     1  2.88e+05   2.88e+05   1000.     
   1   291   1     0     1     1  2.90e+05   2.90e+05   1000.     
   1   292   1     0     1     1  2.90e+05   2.90e+05   1000.     
   1   293   1     0     1     1  2.92e+05   2.92e+05   1000.     
   1   294   1     0     1     1  2.92e+05   2.92e+05   1000.     
   1   295   1     0     1     1  2.94e+05   2.94e+05   1000.     
   1   296   1     0     1     1  2.94e+05   2.94e+05   1000.     
   1   297   1     0     1     1  2.96e+05   2.96e+05   1000.     
   1   298   1     0     1     1  2.96e+05   2.96e+05   1000.     
   1   299   1     0     1     1  2.98e+05   2.98e+05   1000.     
   1   300   1     0     1     1  2.98e+05   2.98e+05   1000.     
   1   301   1     0     1     1  3.00e+05   3.00e+05   1000.     
   1   302   1     0     1     1  3.00e+05   3.00e+05   1000.     
   1   303   1     0     1     1  3.02e+05   3.02e+05   1000.     
   1   304   1     0     1     1  3.02e+05   3.02e+05   1000.     
   1   305   1     0     1     1  3.04e+05   3.04e+05   1000.     
   1   306   1     0     1     1  3.04e+05   3.04e+05   1000.     
   1   307   1     0     1     1  3.06e+05   3.06e+05   1000.     
   1   308   1     0     1     1  3.06e+05   3.06e+05   1000.     
   1   309   1     0     1     1  3.08e+05   3.08e+05   1000.     
   1   310   1     0     1     1  3.08e+05   3.08e+05   1000.     
   1   311   1     0     1     1  3.10e+05   3.10e+05   1000.     
   1   312   1     0     1     1  3.10e+05   3.10e+05   1000.     
   1   313   1     0     1     1  3.12e+05   3.12e+05   1000.     
   1   314   1     0     1     1  3.12e+05   3.12e+05   1000.     
   1   315   1     0     1     1  3.14e+05   3.14e+05   1000.     
   1   316   1     0     1     1  3.14e+05   3.14e+05   1000.     
   1   317   1     0     1     1  3.16e+05   3.16e+05   1000.     
   1   318   1     0     1     1  3.16e+05   3.16e+05   1000.     
   1   319   1     0     1     1  3.18e+05   3.18e+05   1000.     
   1   320   1     0     1     1  3.18e+05   3.18e+05   1000.     
   1   321   1     0     1     1  3.20e+05   3.20e+05   1000.     
   1   322   1     0     1     1  3.20e+05   3.20e+05   1000.     
   1   323   1     0     1     1  3.22e+05   3.22e+05   1000.     
   1   324   1     0     1     1  3.22e+05   3.22e+05   1000.     
   1   325   1     0     1     1  3.24e+05   3.24e+05   1000.     
   1   326   1     0     1     1  3.24e+05   3.24e+05   1000.     
   1   327   1     0     1     1  3.26e+05   3.26e+05   1000.     
   1   328   1     0     1     1  3.26e+05   3.26e+05   1000.     
   1   329   1     0     1     1  3.28e+05   3.28e+05   1000.     
   1   330   1     0     1     1  3.28e+05   3.28e+05   1000.     
   1   331   1     0     1     1  3.30e+05   3.30e+05   1000.     
   1   332   1     0     1     1  3.30e+05   3.30e+05   1000.     
   1   333   1     0     1     1  3.32e+05   3.32e+05   1000.     
   1   334   1     0     1     1  3.32e+05   3.32e+05   1000.     
   1   335   1     0     1     1  3.34e+05   3.34e+05   1000.     
   1   336   1     0     1     1  3.34e+05   3.34e+05   1000.     
   1   337   1     0     1     1  3.36e+05   3.36e+05   1000.     
   1   338   1     0     1     1  3.36e+05   3.36e+05   1000.     
   1   339   1     0     1     1  3.38e+05   3.38e+05   1000.     
   1   340   1     0     1     1  3.38e+05   3.38e+05   1000.     
   1   341   1     0     1     1  3.40e+05   3.40e+05   1000.     
   1   342   1     0     1     1  3.40e+05   3.40e+05   1000.     
   1   343   1     0     1     1  3.42e+05   3.42e+05   1000.     
   1   344   1     0     1     1  3.42e+05   3.42e+05   1000.     
   1   345   1     0     1     1  3.44e+05   3.44e+05   1000.     
   1   346   1     0     1     1  3.44e+05   3.44e+05   1000.     
   1   347   1     0     1     1  3.46e+05   3.46e+05   1000.     
   1   348   1     0     1     1  3.46e+05   3.46e+05   1000.     
   1   349   1     0     1     1  3.48e+05   3.48e+05   1000.     
   1   350   1     0     1     1  3.48e+05   3.48e+05   1000.     
   1   351   1     0     1     1  3.50e+05   3.50e+05   1000.     
   1   352   1     0     1     1  3.50e+05   3.50e+05   1000.     
   1   353   1     0     1     1  3.52e+05   3.52e+05   1000.     
   1   354   1     0     1     1  3.52e+05   3.52e+05   1000.     
   1   355   1     0     1     1  3.54e+05   3.54e+05   1000.     
   1   356   1     0     1     1  3.54e+05   3.54e+05   1000.     
   1   357   1     0     1     1  3.56e+05   3.56e+05   1000.     
   1   358   1     0     1     1  3.56e+05   3.56e+05   1000.     
   1   359   1     0     1     1  3.58e+05   3.58e+05   1000.     
   1   360   1     0     1     1  3.58e+05   3.58e+05   1000.     
   1   361   1     0     1     1  3.60e+05   3.60e+05   1000.     
   1   362   1     0     1     1  3.60e+05   3.60e+05   1000.     
   1   363   1     0     1     1  3.62e+05   3.62e+05   1000.     
   1   364   1     0     1     1  3.62e+05   3.62e+05   1000.     
   1   365   1     0     1     1  3.64e+05   3.64e+05   1000.     
   1   366   1     0     1     1  3.64e+05   3.64e+05   1000.     
   1   367   1     0     1     1  3.66e+05   3.66e+05   1000.     
   1   368   1     0     1     1  3.66e+05   3.66e+05   1000.     
   1   369   1     0     1     1  3.68e+05   3.68e+05   1000.     
   1   370   1     0     1     1  3.68e+05   3.68e+05   1000.     
   1   371   1     0     1     1  3.70e+05   3.70e+05   1000.     
   1   372   1     0     1     1  3.70e+05   3.70e+05   1000.     
   1   373   1     0     1     1  3.72e+05   3.72e+05   1000.     
   1   374   1     0     1     1  3.72e+05   3.72e+05   1000.     
   1   375   1     0     1     1  3.74e+05   3.74e+05   1000.     
   1   376   1     0     1     1  3.74e+05   3.74e+05   1000.     
   1   377   1     0     1     1  3.76e+05   3.76e+05   1000.     
   1   378   1     0     1     1  3.76e+05   3.76e+05   1000.     
   1   379   1     0     1     1  3.78e+05   3.78e+05   1000.     
   1   380   1     0     1     1  3.78e+05   3.78e+05   1000.     
   1   381   1     0     1     1  3.80e+05   3.80e+05   1000.     
   1   382   1     0     1     1  3.80e+05   3.80e+05   1000.     
   1   383   1     0     1     1  3.82e+05   3.82e+05   1000.     
   1   384   1     0     1     1  3.82e+05   3.82e+05   1000.     
   1   385   1     0     1     1  3.84e+05   3.84e+05   1000.     
   1   386   1     0     1     1  3.84e+05   3.84e+05   1000.     
   1   387   1     0     1     1  3.86e+05   3.86e+05   1000.     
   1   388   1     0     1     1  3.86e+05   3.86e+05   1000.     
   1   389   1     0     1     1  3.88e+05   3.88e+05   1000.     
   1   390   1     0     1     1  3.88e+05   3.88e+05   1000.     
   1   391   1     0     1     1  3.90e+05   3.90e+05   1000.     
   1   392   1     0     1     1  3.90e+05   3.90e+05   1000.     
   1   393   1     0     1     1  3.92e+05   3.92e+05   1000.     
   1   394   1     0     1     1  3.92e+05   3.92e+05   1000.     
   1   395   1     0     1     1  3.94e+05   3.94e+05   1000.     
   1   396   1     0     1     1  3.94e+05   3.94e+05   1000.     
   1   397   1     0     1     1  3.96e+05   3.96e+05   1000.     
   1   398   1     0     1     1  3.96e+05   3.96e+05   1000.     
   1   399   1     0     1     1  3.98e+05   3.98e+05   1000.     
   1   400   1     0     1     1  3.98e+05   3.98e+05   1000.     
   1   401   1     0     1     1  4.00e+05   4.00e+05   1000.     
   1   402   1     0     1     1  4.00e+05   4.00e+05   1000.     
   1   403   1     0     1     1  4.02e+05   4.02e+05   1000.     
   1   404   1     0     1     1  4.02e+05   4.02e+05   1000.     
   1   405   1     0     1     1  4.04e+05   4.04e+05   1000.     
   1   406   1     0     1     1  4.04e+05   4.04e+05   1000.     
   1   407   1     0     1     1  4.06e+05   4.06e+05   1000.     
   1   408   1     0     1     1  4.06e+05   4.06e+05   1000.     
   1   409   1     0     1     1  4.08e+05   4.08e+05   1000.     
   1   410   1     0     1     1  4.08e+05   4.08e+05   1000.     
   1   411   1     0     1     1  4.10e+05   4.10e+05   1000.     
   1   412   1     0     1     1  4.10e+05   4.10e+05   1000.     
   1   413   1     0     1     1  4.12e+05   4.12e+05   1000.     
   1   414   1     0     1     1  4.12e+05   4.12e+05   1000.     
   1   415   1     0     1     1  4.14e+05   4.14e+05   1000.     
   1   416   1     0     1     1  4.14e+05   4.14e+05   1000.     
   1   417   1     0     1     1  4.16e+05   4.16e+05   1000.     
   1   418   1     0     1     1  4.16e+05   4.16e+05   1000.     
   1   419   1     0     1     1  4.18e+05   4.18e+05   1000.     
   1   420   1     0     1     1  4.18e+05   4.18e+05   1000.     
   1   421   1     0     1     1  4.20e+05   4.20e+05   1000.     
   1   422   1     0     1     1  4.20e+05   4.20e+05   1000.     
   1   423   1     0     1     1  4.22e+05   4.22e+05   1000.     
   1   424   1     0     1     1  4.22e+05   4.22e+05   1000.     
   1   425   1     0     1     1  4.24e+05   4.24e+05   1000.     
   1   426   1     0     1     1  4.24e+05   4.24e+05   1000.     
   1   427   1     0     1     1  4.26e+05   4.26e+05   1000.     
   1   428   1     0     1     1  4.26e+05   4.26e+05   1000.     
   1   429   1     0     1     1  4.28e+05   4.28e+05   1000.     
   1   430   1     0     1     1  4.28e+05   4.28e+05   1000.     
   1   431   1     0     1     1  4.30e+05   4.30e+05   1000.     
   1   432   1     0     1     1  4.30e+05   4.30e+05   1000.     
   1   433   1     0     1     1  4.32e+05   4.32e+05   1000.     
   1   434   1     0     1     1  4.32e+05   4.32e+05   1000.     
   1   435   1     0     1     1  4.34e+05   4.34e+05   1000.     
   1   436   1     0     1     1  4.34e+05   4.34e+05   1000.     
   1   437   1     0     1     1  4.36e+05   4.36e+05   1000.     
   1   438   1     0     1     1  4.36e+05   4.36e+05   1000.     
   1   439   1     0     1     1  4.38e+05   4.38e+05   1000.     
   1   440   1     0     1     1  4.38e+05   4.38e+05   1000.     
   1   441   1     0     1     1  4.40e+05   4.40e+05   1000.     
   1   442   1     0     1     1  4.40e+05   4.40e+05   1000.     
   1   443   1     0     1     1  4.42e+05   4.42e+05   1000.     
   1   444   1     0     1     1  4.42e+05   4.42e+05   1000.     
   1   445   1     0     1     1  4.44e+05   4.44e+05   1000.     
   1   446   1     0     1     1  4.44e+05   4.44e+05   1000.     
   1   447   1     0     1     1  4.46e+05   4.46e+05   1000.     
   1   448   1     0     1     1  4.46e+05   4.46e+05   1000.     
   1   449   1     0     1     1  4.48e+05   4.48e+05   1000.     
   1   450   1     0     1     1  4.48e+05   4.48e+05   1000.     
   1   451   1     0     1     1  4.50e+05   4.50e+05   1000.     
   1   452   1     0     1     1  4.50e+05   4.50e+05   1000.     
   1   453   1     0     1     1  4.52e+05   4.52e+05   1000.     
   1   454   1     0     1     1  4.52e+05   4.52e+05   1000.     
   1   455   1     0     1     1  4.54e+05   4.54e+05   1000.     
   1   456   1     0     1     1  4.54e+05   4.54e+05   1000.     
   1   457   1     0     1     1  4.56e+05   4.56e+05   1000.     
   1   458   1     0     1     1  4.56e+05   4.56e+05   1000.     
   1   459   1     0     1     1  4.58e+05   4.58e+05   1000.     
   1   460   1     0     1     1  4.58e+05   4.58e+05   1000.     
   1   461   1     0     1     1  4.60e+05   4.60e+05   1000.     
   1   462   1     0     1     1  4.60e+05   4.60e+05   1000.     
   1   463   1     0     1     1  4.62e+05   4.62e+05   1000.     
   1   464   1     0     1     1  4.62e+05   4.62e+05   1000.     
   1   465   1     0     1     1  4.64e+05   4.64e+05   1000.     
   1   466   1     0     1     1  4.64e+05   4.64e+05   1000.     
   1   467   1     0     1     1  4.66e+05   4.66e+05   1000.     
   1   468   1     0     1     1  4.66e+05   4.66e+05   1000.     
   1   469   1     0     1     1  4.68e+05   4.68e+05   1000.     
   1   470   1     0     1     1  4.68e+05   4.68e+05   1000.     
   1   471   1     0     1     1  4.70e+05   4.70e+05   1000.     
   1   472   1     0     1     1  4.70e+05   4.70e+05   1000.     
   1   473   1     0     1     1  4.72e+05   4.72e+05   1000.     
   1   474   1     0     1     1  4.72e+05   4.72e+05   1000.     
   1   475   1     0     1     1  4.74e+05   4.74e+05   1000.     
   1   476   1     0     1     1  4.74e+05   4.74e+05   1000.     
   1   477   1     0     1     1  4.76e+05   4.76e+05   1000.     
   1   478   1     0     1     1  4.76e+05   4.76e+05   1000.     
   1   479   1     0     1     1  4.78e+05   4.78e+05   1000.     
   1   480   1     0     1     1  4.78e+05   4.78e+05   1000.     
   1   481   1     0     1     1  4.80e+05   4.80e+05   1000.     
   1   482   1     0     1     1  4.80e+05   4.80e+05   1000.     
   1   483   1     0     1     1  4.82e+05   4.82e+05   1000.     
   1   484   1     0     1     1  4.82e+05   4.82e+05   1000.     
   1   485   1     0     1     1  4.84e+05   4.84e+05   1000.     
   1   486   1     0     1     1  4.84e+05   4.84e+05   1000.     
   1   487   1     0     1     1  4.86e+05   4.86e+05   1000.     
   1   488   1     0     1     1  4.86e+05   4.86e+05   1000.     
   1   489   1     0     1     1  4.88e+05   4.88e+05   1000.     
   1   490   1     0     1     1  4.88e+05   4.88e+05   1000.     
   1   491   1     0     1     1  4.90e+05   4.90e+05   1000.     
   1   492   1     0     1     1  4.90e+05   4.90e+05   1000.     
   1   493   1     0     1     1  4.92e+05   4.92e+05   1000.     
   1   494   1     0     1     1  4.92e+05   4.92e+05   1000.     
   1   495   1     0     1     1  4.94e+05   4.94e+05   1000.     
   1   496   1     0     1     1  4.94e+05   4.94e+05   1000.     
   1   497   1     0     1     1  4.96e+05   4.96e+05   1000.     
   1   498   1     0     1     1  4.96e+05   4.96e+05   1000.     
   1   499   1     0     1     1  4.98e+05   4.98e+05   1000.     
   1   500   1     0     1     1  4.98e+05   4.98e+05   1000.     
   1   501   1     0     1     1  5.00e+05   5.00e+05   1000.     
   1   502   1     0     1     1  5.00e+05   5.00e+05   1000.     
   1   503   1     0     1     1  5.02e+05   5.02e+05   1000.     
   1   504   1     0     1     1  5.02e+05   5.02e+05   1000.     
   1   505   1     0     1     1  5.04e+05   5.04e+05   1000.     
   1   506   1     0     1     1  5.04e+05   5.04e+05   1000.     
   1   507   1     0     1     1  5.06e+05   5.06e+05   1000.     
   1   508   1     0     1     1  5.06e+05   5.06e+05   1000.     
   1   509   1     0     1     1  5.08e+05   5.08e+05   1000.     
   1   510   1     0     1     1  5.08e+05   5.08e+05   1000.     
   1   511   1     0     1     1  5.10e+05   5.10e+05   1000.     
   1   512   1     0     1     1  5.10e+05   5.10e+05   1000.     
   1   513   1     0     1     1  5.12e+05   5.12e+05   1000.     
   1   514   1     0     1     1  5.12e+05   5.12e+05   1000.     
   1   515   1     0     1     1  5.14e+05   5.14e+05   1000.     
   1   516   1     0     1     1  5.14e+05   5.14e+05   1000.     
   1   517   1     0     1     1  5.16e+05   5.16e+05   1000.     
   1   518   1     0     1     1  5.16e+05   5.16e+05   1000.     
   1   519   1     0     1     1  5.18e+05   5.18e+05   1000.     
   1   520   1     0     1     1  5.18e+05   5.18e+05   1000.     
   1   521   1     0     1     1  5.20e+05   5.20e+05   1000.     
   1   522   1     0     1     1  5.20e+05   5.20e+05   1000.     
   1   523   1     0     1     1  5.22e+05   5.22e+05   1000.     
   1   524   1     0     1     1  5.22e+05   5.22e+05   1000.     
   1   525   1     0     1     1  5.24e+05   5.24e+05   1000.     
   1   526   1     0     1     1  5.24e+05   5.24e+05   1000.     
   1   527   1     0     1     1  5.26e+05   5.26e+05   1000.     
   1   528   1     0     1     1  5.26e+05   5.26e+05   1000.     
   1   529   1     0     1     1  5.28e+05   5.28e+05   1000.     
   1   530   1     0     1     1  5.28e+05   5.28e+05   1000.     
   1   531   1     0     1     1  5.30e+05   5.30e+05   1000.     
   1   532   1     0     1     1  5.30e+05   5.30e+05   1000.     
   1   533   1     0     1     1  5.32e+05   5.32e+05   1000.     
   1   534   1     0     1     1  5.32e+05   5.32e+05   1000.     
   1   535   1     0     1     1  5.34e+05   5.34e+05   1000.     
   1   536   1     0     1     1  5.34e+05   5.34e+05   1000.     
   1   537   1     0     1     1  5.36e+05   5.36e+05   1000.     
   1   538   1     0     1     1  5.36e+05   5.36e+05   1000.     
   1   539   1     0     1     1  5.38e+05   5.38e+05   1000.     
   1   540   1     0     1     1  5.38e+05   5.38e+05   1000.     
   1   541   1     0     1     1  5.40e+05   5.40e+05   1000.     
   1   542   1     0     1     1  5.40e+05   5.40e+05   1000.     
   1   543   1     0     1     1  5.42e+05   5.42e+05   1000.     
   1   544   1     0     1     1  5.42e+05   5.42e+05   1000.     
   1   545   1     0     1     1  5.44e+05   5.44e+05   1000.     
   1   546   1     0     1     1  5.44e+05   5.44e+05   1000.     
   1   547   1     0     1     1  5.46e+05   5.46e+05   1000.     
   1   548   1     0     1     1  5.46e+05   5.46e+05   1000.     
   1   549   1     0     1     1  5.48e+05   5.48e+05   1000.     
   1   550   1     0     1     1  5.48e+05   5.48e+05   1000.     
   1   551   1     0     1     1  5.50e+05   5.50e+05   1000.     
   1   552   1     0     1     1  5.50e+05   5.50e+05   1000.     
   1   553   1     0     1     1  5.52e+05   5.52e+05   1000.     
   1   554   1     0     1     1  5.52e+05   5.52e+05   1000.     
   1   555   1     0     1     1  5.54e+05   5.54e+05   1000.     
   1   556   1     0     1     1  5.54e+05   5.54e+05   1000.     
   1   557   1     0     1     1  5.56e+05   5.56e+05   1000.     
   1   558   1     0     1     1  5.56e+05   5.56e+05   1000.     
   1   559   1     0     1     1  5.58e+05   5.58e+05   1000.     
   1   560   1     0     1     1  5.58e+05   5.58e+05   1000.     
   1   561   1     0     1     1  5.60e+05   5.60e+05   1000.     
   1   562   1     0     1     1  5.60e+05   5.60e+05   1000.     
   1   563   1     0     1     1  5.62e+05   5.62e+05   1000.     
   1   564   1     0     1     1  5.62e+05   5.62e+05   1000.     
   1   565   1     0     1     1  5.64e+05   5.64e+05   1000.     
   1   566   1     0     1     1  5.64e+05   5.64e+05   1000.     
   1   567   1     0     1     1  5.66e+05   5.66e+05   1000.     
   1   568   1     0     1     1  5.66e+05   5.66e+05   1000.     
   1   569   1     0     1     1  5.68e+05   5.68e+05   1000.     
   1   570   1     0     1     1  5.68e+05   5.68e+05   1000.     
   1   571   1     0     1     1  5.70e+05   5.70e+05   1000.     
   1   572   1     0     1     1  5.70e+05   5.70e+05   1000.     
   1   573   1     0     1     1  5.72e+05   5.72e+05   1000.     
   1   574   1     0     1     1  5.72e+05   5.72e+05   1000.     
   1   575   1     0     1     1  5.74e+05   5.74e+05   1000.     
   1   576   1     0     1     1  5.74e+05   5.74e+05   1000.     
   1   577   1     0     1     1  5.76e+05   5.76e+05   1000.     
   1   578   1     0     1     1  5.76e+05   5.76e+05   1000.     
   1   579   1     0     1     1  5.78e+05   5.78e+05   1000.     
   1   580   1     0     1     1  5.78e+05   5.78e+05   1000.     
   1   581   1     0     1     1  5.80e+05   5.80e+05   1000.     
   1   582   1     0     1     1  5.80e+05   5.80e+05   1000.     
   1   583   1     0     1     1  5.82e+05   5.82e+05   1000.     
   1   584   1     0     1     1  5.82e+05   5.82e+05   1000.     
   1   585   1     0     1     1  5.84e+05   5.84e+05   1000.     
   1   586   1     0     1     1  5.84e+05   5.84e+05   1000.     
   1   587   1     0     1     1  5.86e+05   5.86e+05   1000.     
   1   588   1     0     1     1  5.86e+05   5.86e+05   1000.     
   1   589   1     0     1     1  5.88e+05   5.88e+05   1000.     
   1   590   1     0     1     1  5.88e+05   5.88e+05   1000.     
   1   591   1     0     1     1  5.90e+05   5.90e+05   1000.     
   1   592   1     0     1     1  5.90e+05   5.90e+05   1000.     
   1   593   1     0     1     1  5.92e+05   5.92e+05   1000.     
   1   594   1     0     1     1  5.92e+05   5.92e+05   1000.     
   1   595   1     0     1     1  5.94e+05   5.94e+05   1000.     
   1   596   1     0     1     1  5.94e+05   5.94e+05   1000.     
   1   597   1     0     1     1  5.96e+05   5.96e+05   1000.     
   1   598   1     0     1     1  5.96e+05   5.96e+05   1000.     
   1   599   1     0     1     1  5.98e+05   5.98e+05   1000.     
   1   600   1     0     1     1  5.98e+05   5.98e+05   1000.     
   1   601   1     0     1     1  6.00e+05   6.00e+05   1000.     
   1   602   1     0     1     1  6.00e+05   6.00e+05   1000.     
   1   603   1     0     1     1  6.02e+05   6.02e+05   1000.     
   1   604   1     0     1     1  6.02e+05   6.02e+05   1000.     
   1   605   1     0     1     1  6.04e+05   6.04e+05   1000.     
   1   606   1     0     1     1  6.04e+05   6.04e+05   1000.     
   1   607   1     0     1     1  6.06e+05   6.06e+05   1000.     
   1   608   1     0     1     1  6.06e+05   6.06e+05   1000.     
   1   609   1     0     1     1  6.08e+05   6.08e+05   1000.     
   1   610   1     0     1     1  6.08e+05   6.08e+05   1000.     
   1   611   1     0     1     1  6.10e+05   6.10e+05   1000.     
   1   612   1     0     1     1  6.10e+05   6.10e+05   1000.     
   1   613   1     0     1     1  6.12e+05   6.12e+05   1000.     
   1   614   1     0     1     1  6.12e+05   6.12e+05   1000.     
   1   615   1     0     1     1  6.14e+05   6.14e+05   1000.     
   1   616   1     0     1     1  6.14e+05   6.14e+05   1000.     
   1   617   1     0     1     1  6.16e+05   6.16e+05   1000.     
   1   618   1     0     1     1  6.16e+05   6.16e+05   1000.     
   1   619   1     0     1     1  6.18e+05   6.18e+05   1000.     
   1   620   1     0     1     1  6.18e+05   6.18e+05   1000.     
   1   621   1     0     1     1  6.20e+05   6.20e+05   1000.     
   1   622   1     0     1     1  6.20e+05   6.20e+05   1000.     
   1   623   1     0     1     1  6.22e+05   6.22e+05   1000.     
   1   624   1     0     1     1  6.22e+05   6.22e+05   1000.     
   1   625   1     0     1     1  6.24e+05   6.24e+05   1000.     
   1   626   1     0     1     1  6.24e+05   6.24e+05   1000.     
   1   627   1     0     1     1  6.26e+05   6.26e+05   1000.     
   1   628   1     0     1     1  6.26e+05   6.26e+05   1000.     
   1   629   1     0     1     1  6.28e+05   6.28e+05   1000.     
   1   630   1     0     1     1  6.28e+05   6.28e+05   1000.     
   1   631   1     0     1     1  6.30e+05   6.30e+05   1000.     
   1   632   1     0     1     1  6.30e+05   6.30e+05   1000.     
   1   633   1     0     1     1  6.32e+05   6.32e+05   1000.     
   1   634   1     0     1     1  6.32e+05   6.32e+05   1000.     
   1   635   1     0     1     1  6.34e+05   6.34e+05   1000.     
   1   636   1     0     1     1  6.34e+05   6.34e+05   1000.     
   1   637   1     0     1     1  6.36e+05   6.36e+05   1000.     
   1   638   1     0     1     1  6.36e+05   6.36e+05   1000.     
   1   639   1     0     1     1  6.38e+05   6.38e+05   1000.     
   1   640   1     0     1     1  6.38e+05   6.38e+05   1000.     
   1   641   1     0     1     1  6.40e+05   6.40e+05   1000.     
   1   642   1     0     1     1  6.40e+05   6.40e+05   1000.     
   1   643   1     0     1     1  6.42e+05   6.42e+05   1000.     
   1   644   1     0     1     1  6.42e+05   6.42e+05   1000.     
   1   645   1     0     1     1  6.44e+05   6.44e+05   1000.     
   1   646   1     0     1     1  6.44e+05   6.44e+05   1000.     
   1   647   1     0     1     1  6.46e+05   6.46e+05   1000.     
   1   648   1     0     1     1  6.46e+05   6.46e+05   1000.     
   1   649   1     0     1     1  6.48e+05   6.48e+05   1000.     
   1   650   1     0     1     1  6.48e+05   6.48e+05   1000.     
   1   651   1     0     1     1  6.50e+05   6.50e+05   1000.     
   1   652   1     0     1     1  6.50e+05   6.50e+05   1000.     
   1   653   1     0     1     1  6.52e+05   6.52e+05   1000.     
   1   654   1     0     1     1  6.52e+05   6.52e+05   1000.     
   1   655   1     0     1     1  6.54e+05   6.54e+05   1000.     
   1   656   1     0     1     1  6.54e+05   6.54e+05   1000.     
   1   657   1     0     1     1  6.56e+05   6.56e+05   1000.     
   1   658   1     0     1     1  6.56e+05   6.56e+05   1000.     
   1   659   1     0     1     1  6.58e+05   6.58e+05   1000.     
   1   660   1     0     1     1  6.58e+05   6.58e+05   1000.     
   1   661   1     0     1     1  6.60e+05   6.60e+05   1000.     
   1   662   1     0     1     1  6.60e+05   6.60e+05   1000.     
   1   663   1     0     1     1  6.62e+05   6.62e+05   1000.     
   1   664   1     0     1     1  6.62e+05   6.62e+05   1000.     
   1   665   1     0     1     1  6.64e+05   6.64e+05   1000.     
   1   666   1     0     1     1  6.64e+05   6.64e+05   1000.     
   1   667   1     0     1     1  6.66e+05   6.66e+05   1000.     
   1   668   1     0     1     1  6.66e+05   6.66e+05   1000.     
   1   669   1     0     1     1  6.68e+05   6.68e+05   1000.     
   1   670   1     0     1     1  6.68e+05   6.68e+05   1000.     
   1   671   1     0     1     1  6.70e+05   6.70e+05   1000.     
   1   672   1     0     1     1  6.70e+05   6.70e+05   1000.     
   1   673   1     0     1     1  6.72e+05   6.72e+05   1000.     
   1   674   1     0     1     1  6.72e+05   6.72e+05   1000.     
   1   675   1     0     1     1  6.74e+05   6.74e+05   1000.     
   1   676   1     0     1     1  6.74e+05   6.74e+05   1000.     
   1   677   1     0     1     1  6.76e+05   6.76e+05   1000.     
   1   678   1     0     1     1  6.76e+05   6.76e+05   1000.     
   1   679   1     0     1     1  6.78e+05   6.78e+05   1000.     
   1   680   1     0     1     1  6.78e+05   6.78e+05   1000.     
   1   681   1     0     1     1  6.80e+05   6.80e+05   1000.     
   1   682   1     0     1     1  6.80e+05   6.80e+05   1000.     
   1   683   1     0     1     1  6.82e+05   6.82e+05   1000.     
   1   684   1     0     1     1  6.82e+05   6.82e+05   1000.     
   1   685   1     0     1     1  6.84e+05   6.84e+05   1000.     
   1   686   1     0     1     1  6.84e+05   6.84e+05   1000.     
   1   687   1     0     1     1  6.86e+05   6.86e+05   1000.     
   1   688   1     0     1     1  6.86e+05   6.86e+05   1000.     
   1   689   1     0     1     1  6.88e+05   6.88e+05   1000.     
   1   690   1     0     1     1  6.88e+05   6.88e+05   1000.     
   1   691   1     0     1     1  6.90e+05   6.90e+05   1000.     
   1   692   1     0     1     1  6.90e+05   6.90e+05   1000.     
   1   693   1     0     1     1  6.92e+05   6.92e+05   1000.     
   1   694   1     0     1     1  6.92e+05   6.92e+05   1000.     
   1   695   1     0     1     1  6.94e+05   6.94e+05   1000.     
   1   696   1     0     1     1  6.94e+05   6.94e+05   1000.     
   1   697   1     0     1     1  6.96e+05   6.96e+05   1000.     
   1   698   1     0     1     1  6.96e+05   6.96e+05   1000.     
   1   699   1     0     1     1  6.98e+05   6.98e+05   1000.     
   1   700   1     0     1     1  6.98e+05   6.98e+05   1000.     
   1   701   1     0     1     1  7.00e+05   7.00e+05   1000.     
   1   702   1     0     1     1  7.00e+05   7.00e+05   1000.     
   1   703   1     0     1     1  7.02e+05   7.02e+05   1000.     
   1   704   1     0     1     1  7.02e+05   7.02e+05   1000.     
   1   705   1     0     1     1  7.04e+05   7.04e+05   1000.     
   1   706   1     0     1     1  7.04e+05   7.04e+05   1000.     
   1   707   1     0     1     1  7.06e+05   7.06e+05   1000.     
   1   708   1     0     1     1  7.06e+05   7.06e+05   1000.     
   1   709   1     0     1     1  7.08e+05   7.08e+05   1000.     
   1   710   1     0     1     1  7.08e+05   7.08e+05   1000.     
   1   711   1     0     1     1  7.10e+05   7.10e+05   1000.     
   1   712   1     0     1     1  7.10e+05   7.10e+05   1000.     
   1   713   1     0     1     1  7.12e+05   7.12e+05   1000.     
   1   714   1     0     1     1  7.12e+05   7.12e+05   1000.     
   1   715   1     0     1     1  7.14e+05   7.14e+05   1000.     
   1   716   1     0     1     1  7.14e+05   7.14e+05   1000.     
   1   717   1     0     1     1  7.16e+05   7.16e+05   1000.     
   1   718   1     0     1     1  7.16e+05   7.16e+05   1000.     
   1   719   1     0     1     1  7.18e+05   7.18e+05   1000.     
   1   720   1     0     1     1  7.18e+05   7.18e+05   1000.     
   1   721   1     0     1     1  7.20e+05   7.20e+05   1000.     
   1   722   1     0     1     1  7.20e+05   7.20e+05   1000.     
   1   723   1     0     1     1  7.22e+05   7.22e+05   1000.     
   1   724   1     0     1     1  7.22e+05   7.22e+05   1000.     
   1   725   1     0     1     1  7.24e+05   7.24e+05   1000.     
   1   726   1     0     1     1  7.24e+05   7.24e+05   1000.     
   1   727   1     0     1     1  7.26e+05   7.26e+05   1000.     
   1   728   1     0     1     1  7.26e+05   7.26e+05   1000.     
   1   729   1     0     1     1  7.28e+05   7.28e+05   1000.     
   1   730   1     0     1     1  7.28e+05   7.28e+05   1000.     
   1   731   1     0     1     1  7.30e+05   7.30e+05   1000.     
   1   732   1     0     1     1  7.30e+05   7.30e+05   1000.     
   1   733   1     0     1     1  7.32e+05   7.32e+05   1000.     
   1   734   1     0     1     1  7.32e+05   7.32e+05   1000.     
   1   735   1     0     1     1  7.34e+05   7.34e+05   1000.     
   1   736   1     0     1     1  7.34e+05   7.34e+05   1000.     
   1   737   1     0     1     1  7.36e+05   7.36e+05   1000.     
   1   738   1     0     1     1  7.36e+05   7.36e+05   1000.     
   1   739   1     0     1     1  7.38e+05   7.38e+05   1000.     
   1   740   1     0     1     1  7.38e+05   7.38e+05   1000.     
   1   741   1     0     1     1  7.40e+05   7.40e+05   1000.     
   1   742   1     0     1     1  7.40e+05   7.40e+05   1000.     
   1   743   1     0     1     1  7.42e+05   7.42e+05   1000.     
   1   744   1     0     1     1  7.42e+05   7.42e+05   1000.     
   1   745   1     0     1     1  7.44e+05   7.44e+05   1000.     
   1   746   1     0     1     1  7.44e+05   7.44e+05   1000.     
   1   747   1     0     1     1  7.46e+05   7.46e+05   1000.     
   1   748   1     0     1     1  7.46e+05   7.46e+05   1000.     
   1   749   1     0     1     1  7.48e+05   7.48e+05   1000.     
   1   750   1     0     1     1  7.48e+05   7.48e+05   1000.     
   1   751   1     0     1     1  7.50e+05   7.50e+05   1000.     
   1   752   1     0     1     1  7.50e+05   7.50e+05   1000.     
   1   753   1     0     1     1  7.52e+05   7.52e+05   1000.     
   1   754   1     0     1     1  7.52e+05   7.52e+05   1000.     
   1   755   1     0     1     1  7.54e+05   7.54e+05   1000.     
   1   756   1     0     1     1  7.54e+05   7.54e+05   1000.     
   1   757   1     0     1     1  7.56e+05   7.56e+05   1000.     
   1   758   1     0     1     1  7.56e+05   7.56e+05   1000.     
   1   759   1     0     1     1  7.58e+05   7.58e+05   1000.     
   1   760   1     0     1     1  7.58e+05   7.58e+05   1000.     
   1   761   1     0     1     1  7.60e+05   7.60e+05   1000.     
   1   762   1     0     1     1  7.60e+05   7.60e+05   1000.     
   1   763   1     0     1     1  7.62e+05   7.62e+05   1000.     
   1   764   1     0     1     1  7.62e+05   7.62e+05   1000.     
   1   765   1     0     1     1  7.64e+05   7.64e+05   1000.     
   1   766   1     0     1     1  7.64e+05   7.64e+05   1000.     
   1   767   1     0     1     1  7.66e+05   7.66e+05   1000.     
   1   768   1     0     1     1  7.66e+05   7.66e+05   1000.     
   1   769   1     0     1     1  7.68e+05   7.68e+05   1000.     
   1   770   1     0     1     1  7.68e+05   7.68e+05   1000.     
   1   771   1     0     1     1  7.70e+05   7.70e+05   1000.     
   1   772   1     0     1     1  7.70e+05   7.70e+05   1000.     
   1   773   1     0     1     1  7.72e+05   7.72e+05   1000.     
   1   774   1     0     1     1  7.72e+05   7.72e+05   1000.     
   1   775   1     0     1     1  7.74e+05   7.74e+05   1000.     
   1   776   1     0     1     1  7.74e+05   7.74e+05   1000.     
   1   777   1     0     1     1  7.76e+05   7.76e+05   1000.     
   1   778   1     0     1     1  7.76e+05   7.76e+05   1000.     
   1   779   1     0     1     1  7.78e+05   7.78e+05   1000.     
   1   780   1     0     1     1  7.78e+05   7.78e+05   1000.     
   1   781   1     0     1     1  7.80e+05   7.80e+05   1000.     
   1   782   1     0     1     1  7.80e+05   7.80e+05   1000.     
   1   783   1     0     1     1  7.82e+05   7.82e+05   1000.     
   1   784   1     0     1     1  7.82e+05   7.82e+05   1000.     
   1   785   1     0     1     1  7.84e+05   7.84e+05   1000.     
   1   786   1     0     1     1  7.84e+05   7.84e+05   1000.     
   1   787   1     0     1     1  7.86e+05   7.86e+05   1000.     
   1   788   1     0     1     1  7.86e+05   7.86e+05   1000.     
   1   789   1     0     1     1  7.88e+05   7.88e+05   1000.     
   1   790   1     0     1     1  7.88e+05   7.88e+05   1000.     
   1   791   1     0     1     1  7.90e+05   7.90e+05   1000.     
   1   792   1     0     1     1  7.90e+05   7.90e+05   1000.     
   1   793   1     0     1     1  7.92e+05   7.92e+05   1000.     
   1   794   1     0     1     1  7.92e+05   7.92e+05   1000.     
   1   795   1     0     1     1  7.94e+05   7.94e+05   1000.     
   1   796   1     0     1     1  7.94e+05   7.94e+05   1000.     
   1   797   1     0     1     1  7.96e+05   7.96e+05   1000.     
   1   798   1     0     1     1  7.96e+05   7.96e+05   1000.     
   1   799   1     0     1     1  7.98e+05   7.98e+05   1000.     
   1   800   1     0     1     1  7.98e+05   7.98e+05   1000.     
   1   801   1     0     1     1  8.00e+05   8.00e+05   1000.     
   1   802   1     0     1     1  8.00e+05   8.00e+05   1000.     
   1   803   1     0     1     1  8.02e+05   8.02e+05   1000.     
   1   804   1     0     1     1  8.02e+05   8.02e+05   1000.     
   1   805   1     0     1     1  8.04e+05   8.04e+05   1000.     
   1   806   1     0     1     1  8.04e+05   8.04e+05   1000.     
   1   807   1     0     1     1  8.06e+05   8.06e+05   1000.     
   1   808   1     0     1     1  8.06e+05   8.06e+05   1000.     
   1   809   1     0     1     1  8.08e+05   8.08e+05   1000.     
   1   810   1     0     1     1  8.08e+05   8.08e+05   1000.     
   1   811   1     0     1     1  8.10e+05   8.10e+05   1000.     
   1   812   1     0     1     1  8.10e+05   8.10e+05   1000.     
   1   813   1     0     1     1  8.12e+05   8.12e+05   1000.     
   1   814   1     0     1     1  8.12e+05   8.12e+05   1000.     
   1   815   1     0     1     1  8.14e+05   8.14e+05   1000.     
   1   816   1     0     1     1  8.14e+05   8.14e+05   1000.     
   1   817   1     0     1     1  8.16e+05   8.16e+05   1000.     
   1   818   1     0     1     1  8.16e+05   8.16e+05   1000.     
   1   819   1     0     1     1  8.18e+05   8.18e+05   1000.     
   1   820   1     0     1     1  8.18e+05   8.18e+05   1000.     
   1   821   1     0     1     1  8.20e+05   8.20e+05   1000.     
   1   822   1     0     1     1  8.20e+05   8.20e+05   1000.     
   1   823   1     0     1     1  8.22e+05   8.22e+05   1000.     
   1   824   1     0     1     1  8.22e+05   8.22e+05   1000.     
   1   825   1     0     1     1  8.24e+05   8.24e+05   1000.     
   1   826   1     0     1     1  8.24e+05   8.24e+05   1000.     
   1   827   1     0     1     1  8.26e+05   8.26e+05   1000.     
   1   828   1     0     1     1  8.26e+05   8.26e+05   1000.     
   1   829   1     0     1     1  8.28e+05   8.28e+05   1000.     
   1   830   1     0     1     1  8.28e+05   8.28e+05   1000.     
   1   831   1     0     1     1  8.30e+05   8.30e+05   1000.     
   1   832   1     0     1     1  8.30e+05   8.30e+05   1000.     
   1   833   1     0     1     1  8.32e+05   8.32e+05   1000.     
   1   834   1     0     1     1  8.32e+05   8.32e+05   1000.     
   1   835   1     0     1     1  8.34e+05   8.34e+05   1000.     
   1   836   1     0     1     1  8.34e+05   8.34e+05   1000.     
   1   837   1     0     1     1  8.36e+05   8.36e+05   1000.     
   1   838   1     0     1     1  8.36e+05   8.36e+05   1000.     
   1   839   1     0     1     1  8.38e+05   8.38e+05   1000.     
   1   840   1     0     1     1  8.38e+05   8.38e+05   1000.     
   1   841   1     0     1     1  8.40e+05   8.40e+05   1000.     
   1   842   1     0     1     1  8.40e+05   8.40e+05   1000.     
   1   843   1     0     1     1  8.42e+05   8.42e+05   1000.     
   1   844   1     0     1     1  8.42e+05   8.42e+05   1000.     
   1   845   1     0     1     1  8.44e+05   8.44e+05   1000.     
   1   846   1     0     1     1  8.44e+05   8.44e+05   1000.     
   1   847   1     0     1     1  8.46e+05   8.46e+05   1000.     
   1   848   1     0     1     1  8.46e+05   8.46e+05   1000.     
   1   849   1     0     1     1  8.48e+05   8.48e+05   1000.     
   1   850   1     0     1     1  8.48e+05   8.48e+05   1000.     
   1   851   1     0     1     1  8.50e+05   8.50e+05   1000.     
   1   852   1     0     1     1  8.50e+05   8.50e+05   1000.     
   1   853   1     0     1     1  8.52e+05   8.52e+05   1000.     
   1   854   1     0     1     1  8.52e+05   8.52e+05   1000.     
   1   855   1     0     1     1  8.54e+05   8.54e+05   1000.     
   1   856   1     0     1     1  8.54e+05   8.54e+05   1000.     
   1   857   1     0     1     1  8.56e+05   8.56e+05   1000.     
   1   858   1     0     1     1  8.56e+05   8.56e+05   1000.     
   1   859   1     0     1     1  8.58e+05   8.58e+05   1000.     
   1   860   1     0     1     1  8.58e+05   8.58e+05   1000.     
   1   861   1     0     1     1  8.60e+05   8.60e+05   1000.     
   1   862   1     0     1     1  8.60e+05   8.60e+05   1000.     
   1   863   1     0     1     1  8.62e+05   8.62e+05   1000.     
   1   864   1     0     1     1  8.62e+05   8.62e+05   1000.     
   1   865   1     0     1     1  8.64e+05   8.64e+05   1000.     
   1   866   1     0     1     1  8.64e+05   8.64e+05   1000.     
   1   867   1     0     1     1  8.66e+05   8.66e+05   1000.     
   1   868   1     0     1     1  8.66e+05   8.66e+05   1000.     
   1   869   1     0     1     1  8.68e+05   8.68e+05   1000.     
   1   870   1     0     1     1  8.68e+05   8.68e+05   1000.     
   1   871   1     0     1     1  8.70e+05   8.70e+05   1000.     
   1   872   1     0     1     1  8.70e+05   8.70e+05   1000.     
   1   873   1     0     1     1  8.72e+05   8.72e+05   1000.     
   1   874   1     0     1     1  8.72e+05   8.72e+05   1000.     
   1   875   1     0     1     1  8.74e+05   8.74e+05   1000.     
   1   876   1     0     1     1  8.74e+05   8.74e+05   1000.     
   1   877   1     0     1     1  8.76e+05   8.76e+05   1000.     
   1   878   1     0     1     1  8.76e+05   8.76e+05   1000.     
   1   879   1     0     1     1  8.78e+05   8.78e+05   1000.     
   1   880   1     0     1     1  8.78e+05   8.78e+05   1000.     
   1   881   1     0     1     1  8.80e+05   8.80e+05   1000.     
   1   882   1     0     1     1  8.80e+05   8.80e+05   1000.     
   1   883   1     0     1     1  8.82e+05   8.82e+05   1000.     
   1   884   1     0     1     1  8.82e+05   8.82e+05   1000.     
   1   885   1     0     1     1  8.84e+05   8.84e+05   1000.     
   1   886   1     0     1     1  8.84e+05   8.84e+05   1000.     
   1   887   1     0     1     1  8.86e+05   8.86e+05   1000.     
   1   888   1     0     1     1  8.86e+05   8.86e+05   1000.     
   1   889   1     0     1     1  8.88e+05   8.88e+05   1000.     
   1   890   1     0     1     1  8.88e+05   8.88e+05   1000.     
   1   891   1     0     1     1  8.90e+05   8.90e+05   1000.     
   1   892   1     0     1     1  8.90e+05   8.90e+05   1000.     
   1   893   1     0     1     1  8.92e+05   8.92e+05   1000.     
   1   894   1     0     1     1  8.92e+05   8.92e+05   1000.     
   1   895   1     0     1     1  8.94e+05   8.94e+05   1000.     
   1   896   1     0     1     1  8.94e+05   8.94e+05   1000.     
   1   897   1     0     1     1  8.96e+05   8.96e+05   1000.     
   1   898   1     0     1     1  8.96e+05   8.96e+05   1000.     
   1   899   1     0     1     1  8.98e+05   8.98e+05   1000.     
   1   900   1     0     1     1  8.98e+05   8.98e+05   1000.     
   1   901   1     0     1     1  9.00e+05   9.00e+05   1000.     
   1   902   1     0     1     1  9.00e+05   9.00e+05   1000.     
   1   903   1     0     1     1  9.02e+05   9.02e+05   1000.     
   1   904   1     0     1     1  9.02e+05   9.02e+05   1000.     
   1   905   1     0     1     1  9.04e+05   9.04e+05   1000.     
   1   906   1     0     1     1  9.04e+05   9.04e+05   1000.     
   1   907   1     0     1     1  9.06e+05   9.06e+05   1000.     
   1   908   1     0     1     1  9.06e+05   9.06e+05   1000.     
   1   909   1     0     1     1  9.08e+05   9.08e+05   1000.     
   1   910   1     0     1     1  9.08e+05   9.08e+05   1000.     
   1   911   1     0     1     1  9.10e+05   9.10e+05   1000.     
   1   912   1     0     1     1  9.10e+05   9.10e+05   1000.     
   1   913   1     0     1     1  9.12e+05   9.12e+05   1000.     
   1   914   1     0     1     1  9.12e+05   9.12e+05   1000.     
   1   915   1     0     1     1  9.14e+05   9.14e+05   1000.     
   1   916   1     0     1     1  9.14e+05   9.14e+05   1000.     
   1   917   1     0     1     1  9.16e+05   9.16e+05   1000.     
   1   918   1     0     1     1  9.16e+05   9.16e+05   1000.     
   1   919   1     0     1     1  9.18e+05   9.18e+05   1000.     
   1   920   1     0     1     1  9.18e+05   9.18e+05   1000.     
   1   921   1     0     1     1  9.20e+05   9.20e+05   1000.     
   1   922   1     0     1     1  9.20e+05   9.20e+05   1000.     
   1   923   1     0     1     1  9.22e+05   9.22e+05   1000.     
   1   924   1     0     1     1  9.22e+05   9.22e+05   1000.     
   1   925   1     0     1     1  9.24e+05   9.24e+05   1000.     
   1   926   1     0     1     1  9.24e+05   9.24e+05   1000.     
   1   927   1     0     1     1  9.26e+05   9.26e+05   1000.     
   1   928   1     0     1     1  9.26e+05   9.26e+05   1000.     
   1   929   1     0     1     1  9.28e+05   9.28e+05   1000.     
   1   930   1     0     1     1  9.28e+05   9.28e+05   1000.     
   1   931   1     0     1     1  9.30e+05   9.30e+05   1000.     
   1   932   1     0     1     1  9.30e+05   9.30e+05   1000.     
   1   933   1     0     1     1  9.32e+05   9.32e+05   1000.     
   1   934   1     0     1     1  9.32e+05   9.32e+05   1000.     
   1   935   1     0     1     1  9.34e+05   9.34e+05   1000.     
   1   936   1     0     1     1  9.34e+05   9.34e+05   1000.     
   1   937   1     0     1     1  9.36e+05   9.36e+05   1000.     
   1   938   1     0     1     1  9.36e+05   9.36e+05   1000.     
   1   939   1     0     1     1  9.38e+05   9.38e+05   1000.     
   1   940   1     0     1     1  9.38e+05   9.38e+05   1000.     
   1   941   1     0     1     1  9.40e+05   9.40e+05   1000.     
   1   942   1     0     1     1  9.40e+05   9.40e+05   1000.     
   1   943   1     0     1     1  9.42e+05   9.42e+05   1000.     
   1   944   1     0     1     1  9.42e+05   9.42e+05   1000.     
   1   945   1     0     1     1  9.44e+05   9.44e+05   1000.     
   1   946   1     0     1     1  9.44e+05   9.44e+05   1000.     
   1   947   1     0     1     1  9.46e+05   9.46e+05   1000.     
   1   948   1     0     1     1  9.46e+05   9.46e+05   1000.     
   1   949   1     0     1     1  9.48e+05   9.48e+05   1000.     
   1   950   1     0     1     1  9.48e+05   9.48e+05   1000.     
   1   951   1     0     1     1  9.50e+05   9.50e+05   1000.     
   1   952   1     0     1     1  9.50e+05   9.50e+05   1000.     
   1   953   1     0     1     1  9.52e+05   9.52e+05   1000.     
   1   954   1     0     1     1  9.52e+05   9.52e+05   1000.     
   1   955   1     0     1     1  9.54e+05   9.54e+05   1000.     
   1   956   1     0     1     1  9.54e+05   9.54e+05   1000.     
   1   957   1     0     1     1  9.56e+05   9.56e+05   1000.     
   1   958   1     0     1     1  9.56e+05   9.56e+05   1000.     
   1   959   1     0     1     1  9.58e+05   9.58e+05   1000.     
   1   960   1     0     1     1  9.58e+05   9.58e+05   1000.     
   1   961   1     0     1     1  9.60e+05   9.60e+05   1000.     
   1   962   1     0     1     1  9.60e+05   9.60e+05   1000.     
   1   963   1     0     1     1  9.62e+05   9.62e+05   1000.     
   1   964   1     0     1     1  9.62e+05   9.62e+05   1000.     
   1   965   1     0     1     1  9.64e+05   9.64e+05   1000.     
   1   966   1     0     1     1  9.64e+05   9.64e+05   1000.     
   1   967   1     0     1     1  9.66e+05   9.66e+05   1000.     
   1   968   1     0     1     1  9.66e+05   9.66e+05   1000.     
   1   969   1     0     1     1  9.68e+05   9.68e+05   1000.     
   1   970   1     0     1     1  9.68e+05   9.68e+05   1000.     
   1   971   1     0     1     1  9.70e+05   9.70e+05   1000.     
   1   972   1     0     1     1  9.70e+05   9.70e+05   1000.     
   1   973   1     0     1     1  9.72e+05   9.72e+05   1000.     
   1   974   1     0     1     1  9.72e+05   9.72e+05   1000.     
   1   975   1     0     1     1  9.74e+05   9.74e+05   1000.     
   1   976   1     0     1     1  9.74e+05   9.74e+05   1000.     
   1   977   1     0     1     1  9.76e+05   9.76e+05   1000.     
   1   978   1     0     1     1  9.76e+05   9.76e+05   1000.     
   1   979   1     0     1     1  9.78e+05   9.78e+05   1000.     
   1   980   1     0     1     1  9.78e+05   9.78e+05   1000.     
   1   981   1     0     1     1  9.80e+05   9.80e+05   1000.     
   1   982   1     0     1     1  9.80e+05   9.80e+05   1000.     
   1   983   1     0     1     1  9.82e+05   9.82e+05   1000.     
   1   984   1     0     1     1  9.82e+05   9.82e+05   1000.     
   1   985   1     0     1     1  9.84e+05   9.84e+05   1000.     
   1   986   1     0     1     1  9.84e+05   9.84e+05   1000.     
   1   987   1     0     1     1  9.86e+05   9.86e+05   1000.     
   1   988   1     0     1     1  9.86e+05   9.86e+05   1000.     
   1   989   1     0     1     1  9.88e+05   9.88e+05   1000.     
   1   990   1     0     1     1  9.88e+05   9.88e+05   1000.     
   1   991   1     0     1     1  9.90e+05   9.90e+05   1000.     
   1   992   1     0     1     1  9.90e+05   9.90e+05   1000.     
   1   993   1     0     1     1  9.92e+05   9.92e+05   1000.     
   1   994   1     0     1     1  9.92e+05   9.92e+05   1000.     
   1   995   1     0     1     1  9.94e+05   9.94e+05   1000.     
   1   996   1     0     1     1  9.94e+05   9.94e+05   1000.     
   1   997   1     0     1     1  9.96e+05   9.96e+05   1000.     
   1   998   1     0     1     1  9.96e+05   9.96e+05   1000.     
   1   999   1     0     1     1  9.98e+05   9.98e+05   1000.     
   1  1000   1     0     1     1  9.98e+05   9.98e+05   1000.     
   1  1001   1     0     1     1  1.00e+06   1.00e+06   1000.     
   1  1002   1     0     1     1  1.00e+06   1.00e+06   500.0     
                          
 THE ANALYSIS HAS COMPLETED SUCCESSFULLY
