*Heading
RAIL CRUSH ANALYSIS WITH RIGID FASTENERS
*preprint, echo=NO, history=NO, model=NO, contact=NO
** ----------------------------------------------------------------
** PART INSTANCE: RAILS
**
*Node
1381, 15, -0.75, -60.75
1382, 15, -0.75, -56.3273506
1383, 15, -0.75, -51.9047012
1384, 15, -0.75, -47.4820518
1385, 15, -0.75, -43.0593987
1386, 18.9655209, -0.75, -43.0593987
1387, 22.9310303, -0.75, -43.0593987
1388, 26.8965492, -0.75, -43.0593987
1389, 30.8620701, -0.75, -43.0593987
1390, 34.8275909, -0.75, -43.0593987
1391, 38.7930984, -0.75, -43.0593987
1392, 42.7586212, -0.75, -43.0593987
1393, 46.7241402, -0.75, -43.0593987
1394, 50.6896591, -0.75, -43.0593987
1395, 54.6551704, -0.75, -43.0593987
1396, 58.6206894, -0.75, -43.0593987
1397, 62.5862083, -0.75, -43.0593987
1398, 66.5517197, -0.75, -43.0593987
1399, 70.5172424, -0.75, -43.0593987
1400, 74.4827576, -0.75, -43.0593987
** ... 5562 like lines cut
*Element, type=S4RS
545, 1385, 1384, 1505, 1386
546, 1384, 1383, 1506, 1505
547, 1383, 1382, 1507, 1506
548, 1382, 1381, 1504, 1507
549, 1386, 1505, 1508, 1387
550, 1505, 1506, 1509, 1508
551, 1506, 1507, 1510, 1509
552, 1507, 1504, 1503, 1510
553, 1387, 1508, 1511, 1388
554, 1508, 1509, 1512, 1511
555, 1509, 1510, 1513, 1512
556, 1510, 1503, 1502, 1513
557, 1388, 1511, 1514, 1389
558, 1511, 1512, 1515, 1514
559, 1512, 1513, 1516, 1515
560, 1513, 1502, 1501, 1516
561, 1389, 1514, 1517, 1390
562, 1514, 1515, 1518, 1517
563, 1515, 1516, 1519, 1518
564, 1516, 1501, 1500, 1519
** ... 961 like lines cut
*Element, type=S3RS
1526, 6484, 6541, 6542
1527, 6542, 5834, 5835
*Element, type=S4RS
1528, 1856, 1855, 2748, 2747
1529, 1855, 1854, 2749, 2748
1530, 1854, 1853, 2692, 2749
1531, 2620, 2693, 2750, 2621
1532, 2693, 2694, 2751, 2750
1533, 2694, 2695, 2752, 2751
1534, 2695, 2696, 2753, 2752
1535, 2696, 2697, 2754, 2753
1536, 2697, 2698, 2755, 2754
1537, 2698, 2699, 2756, 2755
1538, 2699, 2700, 2757, 2756
1539, 2700, 2701, 2758, 2757
1540, 2701, 2702, 2759, 2758
1541, 2702, 2703, 2760, 2759
1542, 2703, 2704, 2761, 2760
1543, 2704, 2705, 2762, 2761
1544, 2705, 2706, 2763, 2762
1545, 2706, 2707, 2764, 2763
1546, 2707, 2708, 2765, 2764
1547, 2708, 2709, 2766, 2765
** ... 35 like lines cut
*Element, type=S3RS
1583, 6542, 5835, 6543
*Element, type=S4RS
1584, 2745, 2746, 2803, 2802
1585, 2746, 2747, 2804, 2803
*Element, type=S3RS
1586, 6484, 6542, 6485
*Element, type=S4RS
1587, 2748, 2749, 2806, 2805
1588, 2749, 2692, 2691, 2806
1589, 2621, 2750, 2807, 2622
1590, 2750, 2751, 2808, 2807
1591, 2751, 2752, 2809, 2808
1592, 2752, 2753, 2810, 2809
1593, 2753, 2754, 2811, 2810
1594, 2754, 2755, 2812, 2811
1595, 2755, 2756, 2813, 2812
1596, 2756, 2757, 2814, 2813
1597, 2757, 2758, 2815, 2814
1598, 2758, 2759, 2816, 2815
1599, 2759, 2760, 2817, 2816
1600, 2760, 2761, 2818, 2817
1601, 2761, 2762, 2819, 2818
1602, 2762, 2763, 2820, 2819
1603, 2763, 2764, 2821, 2820
1604, 2764, 2765, 2822, 2821
1605, 2765, 2766, 2823, 2822
1606, 2766, 2767, 2824, 2823
** ... 266 like lines cut
*Element, type=S3RS
1873, 6543, 5835, 6544
*Element, type=S4RS
1874, 3030, 3031, 3088, 3087
1875, 3031, 3032, 3089, 3088
*Element, type=S3RS
1876, 6544, 5835, 5836
*Element, type=S4RS
1877, 3033, 3034, 3091, 3090
1878, 3034, 2687, 2686, 3091
1879, 2626, 3035, 2628, 2627
1880, 3035, 3036, 2629, 2628
1881, 3036, 3037, 2630, 2629
1882, 3037, 3038, 2631, 2630
1883, 3038, 3039, 2632, 2631
1884, 3039, 3040, 2633, 2632
1885, 3040, 3041, 2634, 2633
1886, 3041, 3042, 2635, 2634
1887, 3042, 3043, 2636, 2635
1888, 3043, 3044, 2637, 2636
1889, 3044, 3045, 2638, 2637
1890, 3045, 3046, 2639, 2638
1891, 3046, 3047, 2640, 2639
1892, 3047, 3048, 2641, 2640
1893, 3048, 3049, 2642, 2641
1894, 3049, 3050, 2643, 2642
1895, 3050, 3051, 2644, 2643
1896, 3051, 3052, 2645, 2644
** ... 35 like lines cut
*Element, type=S3RS
1932, 6487, 6544, 6488
1933, 6488, 6544, 6545
*Element, type=S4RS
1934, 3089, 3090, 2683, 2682
1935, 3090, 3091, 2684, 2683
1936, 3091, 2686, 2685, 2684
1937, 3150, 3151, 3212, 3149
1938, 3149, 3212, 3213, 3148
1939, 3148, 3213, 3214, 3147
1940, 3147, 3214, 3215, 3146
1941, 3146, 3215, 3216, 3145
1942, 3145, 3216, 3217, 3144
1943, 3144, 3217, 3218, 3143
1944, 3143, 3218, 3219, 3142
1945, 3142, 3219, 3220, 3141
1946, 3141, 3220, 3221, 3140
1947, 3140, 3221, 3222, 3139
1948, 3139, 3222, 3223, 3138
1949, 3138, 3223, 3224, 3137
1950, 3137, 3224, 3225, 3136
1951, 3136, 3225, 3226, 3135
1952, 3135, 3226, 3227, 3134
1953, 3134, 3227, 3228, 3133
** ... 1748 like lines cut
*Element, type=S3RS
3702, 6201, 5607, 6200
*Element, type=S4RS
3703, 4436, 4437, 4787, 4786
3704, 4437, 4438, 4788, 4787
3705, 4438, 4439, 4687, 4788
3706, 4642, 4688, 4789, 4643
3707, 4688, 4689, 4790, 4789
3708, 4689, 4690, 4791, 4790
3709, 4690, 4691, 4792, 4791
3710, 4691, 4692, 4793, 4792
3711, 4692, 4693, 4794, 4793
3712, 4693, 4702, 4795, 4794
3713, 4702, 4703, 4796, 4795
3714, 4703, 4704, 4797, 4796
3715, 4704, 4705, 4798, 4797
3716, 4705, 4706, 4799, 4798
3717, 4706, 4707, 4800, 4799
3718, 4707, 4708, 4801, 4800
3719, 4708, 4709, 4802, 4801
3720, 4709, 4710, 4803, 4802
3721, 4710, 4711, 4804, 4803
3722, 4711, 4712, 4805, 4804
** ... 1364 like lines cut
*Element, type=S3RS
5087, 4840, 4783, 4784
*Element, type=S4RS
5088, 5606, 6202, 6203, 5605
5089, 5605, 6203, 6204, 5604
5090, 5604, 6204, 6147, 5603
5091, 6134, 6135, 6205, 6148
5092, 6148, 6205, 6206, 6149
5093, 6149, 6206, 6207, 6150
5094, 6150, 6207, 6208, 6151
5095, 6151, 6208, 6209, 6152
5096, 6152, 6209, 6210, 6153
5097, 6153, 6210, 6211, 6154
5098, 6154, 6211, 6212, 6155
5099, 6155, 6212, 6213, 6156
5100, 6156, 6213, 6214, 6157
5101, 6157, 6214, 6215, 6158
5102, 6158, 6215, 6216, 6159
5103, 6159, 6216, 6217, 6160
5104, 6160, 6217, 6218, 6161
5105, 6161, 6218, 6219, 6162
5106, 6162, 6219, 6220, 6163
5107, 6163, 6220, 6221, 6164
** ... 35 like lines cut
*Element, type=S3RS
5143, 4840, 4784, 4841
*Element, type=S4RS
5144, 6200, 6257, 6258, 6201
5145, 6201, 6258, 6259, 6202
*Element, type=S3RS
5146, 4784, 4434, 4435
*Element, type=S4RS
5147, 6203, 6260, 6261, 6204
5148, 6204, 6261, 6146, 6147
5149, 6135, 6136, 6262, 6205
5150, 6205, 6262, 6263, 6206
5151, 6206, 6263, 6264, 6207
5152, 6207, 6264, 6265, 6208
5153, 6208, 6265, 6266, 6209
5154, 6209, 6266, 6267, 6210
5155, 6210, 6267, 6268, 6211
5156, 6211, 6268, 6269, 6212
5157, 6212, 6269, 6270, 6213
5158, 6213, 6270, 6271, 6214
5159, 6214, 6271, 6272, 6215
5160, 6215, 6272, 6273, 6216
5161, 6216, 6273, 6274, 6217
5162, 6217, 6274, 6275, 6218
5163, 6218, 6275, 6276, 6219
5164, 6219, 6276, 6277, 6220
5165, 6220, 6277, 6278, 6221
5166, 6221, 6278, 6279, 6222
** ... 266 like lines cut
*Element, type=S3RS
5433, 4784, 4435, 4785
*Element, type=S4RS
5434, 6485, 6542, 6543, 6486
5435, 6486, 6543, 6544, 6487
*Element, type=S3RS
5436, 4785, 4435, 4786
*Element, type=S4RS
5437, 6488, 6545, 6546, 6489
5438, 6489, 6546, 6141, 6142
5439, 6140, 5781, 5782, 6490
5440, 6490, 5782, 5783, 6491
5441, 6491, 5783, 5784, 6492
5442, 6492, 5784, 5785, 6493
5443, 6493, 5785, 5786, 6494
5444, 6494, 5786, 5787, 6495
5445, 6495, 5787, 5788, 6496
5446, 6496, 5788, 5789, 6497
5447, 6497, 5789, 5790, 6498
5448, 6498, 5790, 5791, 6499
5449, 6499, 5791, 5792, 6500
5450, 6500, 5792, 5793, 6501
5451, 6501, 5793, 5794, 6502
5452, 6502, 5794, 5795, 6503
5453, 6503, 5795, 5796, 6504
5454, 6504, 5796, 5797, 6505
5455, 6505, 5797, 5798, 6506
5456, 6506, 5798, 5799, 6507
** ... 35 like lines cut
*Element, type=S3RS
5492, 4786, 4435, 4436
5493, 4843, 4786, 4844
*Element, type=S4RS
5494, 6544, 5836, 5837, 6545
5495, 6545, 5837, 5838, 6546
5496, 6546, 5838, 5839, 6141
5497, 5959, 5960, 6558, 6550
5498, 6550, 6558, 6559, 6549
5499, 6549, 6559, 6560, 6548
5500, 6548, 6560, 6557, 6547
5501, 5960, 5961, 6561, 6558
5502, 6558, 6561, 6562, 6559
5503, 6559, 6562, 6563, 6560
5504, 6560, 6563, 6556, 6557
5505, 5961, 5962, 6564, 6561
5506, 6561, 6564, 6565, 6562
5507, 6562, 6565, 6566, 6563
5508, 6563, 6566, 6555, 6556
5509, 5962, 5779, 6551, 6564
5510, 6564, 6551, 6552, 6565
5511, 6565, 6552, 6553, 6566
5512, 6566, 6553, 6554, 6555
5513, 6554, 6553, 6572, 6567
** ... 303 like lines cut
*Element, type=S3RS
5817, 3033, 3090, 3089
5818, 3030, 3087, 3029
5819, 2747, 2805, 2804
5820, 1856, 2747, 1857
5821, 1857, 2747, 2746
5822, 2748, 2805, 2747
5823, 3089, 2682, 2681
5824, 3089, 2681, 3088
5825, 3033, 3089, 3032
5826, 3088, 2681, 3087
5827, 3087, 2681, 2680
5828, 3029, 3087, 3086
5829, 1857, 2746, 2745
5830, 1857, 2745, 1858
5831, 2745, 2802, 2801
5832, 2745, 2801, 2744
5833, 6256, 6257, 6200
5834, 6256, 6200, 6199
5835, 4844, 4786, 4787
5836, 6200, 5607, 5608
** ... 12 like lines cut
*Elset, elset=mid_shell_section
777, 778, 779, 780, 781, 782, 783, 784, 785, 786, 787, 788, 789, 790, 791, 792
793, 794, 795, 796, 797, 798, 799, 800, 801, 802, 803, 804, 805, 806, 807, 808
809, 810, 811, 812, 813, 814, 815, 816, 817, 818, 819, 820, 821, 822, 823, 824
825, 826, 827, 828, 829, 830, 831, 832, 833, 834, 835, 836, 837, 838, 839, 840
841, 842, 843, 844, 845, 846, 847, 848, 849, 850, 851, 852, 853, 854, 855, 856
857, 858, 859, 860, 861, 862, 863, 864, 865, 866, 867, 868, 869, 870, 871, 872
873, 874, 875, 876, 877, 878, 879, 880, 881, 882, 883, 884, 885, 886, 887, 888
889, 890, 891, 892, 893, 894, 895, 896, 897, 898, 899, 900, 901, 902, 903, 904
905, 906, 907, 908, 909, 910, 911, 912, 913, 914, 915, 916, 917, 918, 919, 920
921, 922, 923, 924, 925, 926, 927, 928, 929, 930, 931, 932, 933, 934, 935, 936
937, 938, 939, 940, 941, 942, 943, 944, 945, 946, 947, 948, 949, 950, 951, 952
953, 954, 955, 956, 957, 958, 959, 960, 961, 962, 963, 964, 965, 966, 967, 968
969, 970, 971, 972, 973, 974, 975, 976, 977, 978, 979, 980, 981, 982, 983, 984
985, 986, 987, 988, 989, 990, 991, 992, 993, 994, 995, 996, 997, 998, 999, 1000
1001, 1002, 1003, 1004, 1005, 1006, 1007, 1008, 1009, 1010, 1011, 1012, 1013, 1014, 1015, 1016
1017, 1018, 1019, 1020, 1021, 1022, 1023, 1024, 1025, 1026, 1027, 1028, 1029, 1030, 1031, 1032
1033, 1034, 1035, 1036, 1037, 1038, 1039, 1040, 1041, 1042, 1043, 1044, 1045, 1046, 1047, 1048
1049, 1050, 1051, 1052, 1053, 1054, 1055, 1056, 1057, 1058, 1059, 1060, 1061, 1062, 1063, 1064
1065, 1066, 1067, 1068, 1069, 1070, 1071, 1072, 1073, 1074, 1075, 1076, 1077, 1078, 1079, 1080
1081, 1082, 1083, 1084, 1085, 1086, 1087, 1088, 1089, 1090, 1091, 1092, 1093, 1094, 1095, 1096
** ... 214 like lines cut
*Elset, elset=side_shell_section_1
4802, 4803, 4804, 4805, 4806, 4807, 4808, 4809, 4810, 4811, 4812, 4813, 4814, 4815, 4816, 4817
4818, 4819, 4820, 4821, 4822, 4823, 4824, 4825, 4826, 4827, 4828, 4829, 4830, 4831, 4832, 4833
4834, 4835, 4836, 4837, 4838, 4839, 4840, 4841, 4842, 4843, 4844, 4845, 4846, 4847, 4848, 4849
4850, 4851, 4852, 4853, 4854, 4855, 4856, 4857, 4858, 4859, 4860, 4861, 4862, 4863, 4864, 4865
4866, 4867, 4868, 4869, 4870, 4871, 4872, 4873, 4874, 4875, 4876, 4877, 4878, 4879, 4880, 4881
4882, 4883, 4884, 4885, 4886, 4887, 4888, 4889, 4890, 4891, 4892, 4893, 4894, 4895, 4896, 4897
4898, 4899, 4900, 4901, 4902, 4903, 4904, 4905, 4906, 4907, 4908, 4909, 4910, 4911, 4912, 4913
4914, 4915, 4916, 4917, 4918, 4919, 4920, 4921, 4922, 4923, 4924, 4925, 4926, 4927, 4928, 4929
4930, 4931, 4932, 4933, 4934, 4935, 4936, 4937, 4938, 4939, 4940, 4941, 4942, 4943, 4944, 4945
4946, 4947, 4948, 4949, 4950, 4951, 4952, 4953, 4954, 4955, 4956, 4957, 4958, 4959, 4960, 4961
4962, 4963, 4964, 4965, 4966, 4967, 4968, 4969, 4970, 4971, 4972, 4973, 4974, 4975, 4976, 4977
4978, 4979, 4980, 4981, 4982, 4983, 4984, 4985, 4986, 4987, 4988, 4989, 4990, 4991, 4992, 4993
4994, 4995, 4996, 4997, 4998, 4999, 5000, 5001, 5002, 5003, 5004, 5005, 5006, 5007, 5008, 5009
5010, 5011, 5012, 5013, 5014, 5015, 5016, 5017, 5018, 5019, 5020, 5021, 5022, 5023, 5024, 5025
5026, 5027, 5028, 5029, 5030, 5031, 5032, 5033
*Elset, elset=side_shell_section_2
2169, 2170, 2171, 2172, 2173, 2174, 2175, 2176, 2177, 2178, 2179, 2180, 2181, 2182, 2183, 2184
2185, 2186, 2187, 2188, 2189, 2190, 2191, 2192, 2193, 2194, 2195, 2196, 2197, 2198, 2199, 2200
2201, 2202, 2203, 2204, 2205, 2206, 2207, 2208, 2209, 2210, 2211, 2212, 2213, 2214, 2215, 2216
2217, 2218, 2219, 2220, 2221, 2222, 2223, 2224, 2225, 2226, 2227, 2228, 2229, 2230, 2231, 2232
2233, 2234, 2235, 2236, 2237, 2238, 2239, 2240, 2241, 2242, 2243, 2244, 2245, 2246, 2247, 2248
2249, 2250, 2251, 2252, 2253, 2254, 2255, 2256, 2257, 2258, 2259, 2260, 2261, 2262, 2263, 2264
2265, 2266, 2267, 2268, 2269, 2270, 2271, 2272, 2273, 2274, 2275, 2276, 2277, 2278, 2279, 2280
2281, 2282, 2283, 2284, 2285, 2286, 2287, 2288, 2289, 2290, 2291, 2292, 2293, 2294, 2295, 2296
2297, 2298, 2299, 2300, 2301, 2302, 2303, 2304, 2305, 2306, 2307, 2308, 2309, 2310, 2311, 2312
2313, 2314, 2315, 2316, 2317, 2318, 2319, 2320, 2321, 2322, 2323, 2324, 2325, 2326, 2327, 2328
2329, 2330, 2331, 2332, 2333, 2334, 2335, 2336, 2337, 2338, 2339, 2340, 2341, 2342, 2343, 2344
2345, 2346, 2347, 2348, 2349, 2350, 2351, 2352, 2353, 2354, 2355, 2356, 2357, 2358, 2359, 2360
2361, 2362, 2363, 2364, 2365, 2366, 2367, 2368, 2369, 2370, 2371, 2372, 2373, 2374, 2375, 2376
2377, 2378, 2379, 2380, 2381, 2382, 2383, 2384, 2385, 2386, 2387, 2388, 2389, 2390, 2391, 2392
2393, 2394, 2395, 2396, 2397, 2398, 2399, 2400
*Elset, elset=side_shell_section_3
3185, 3186, 3187, 3188, 3189, 3190, 3191, 3192, 3193, 3194, 3195, 3196, 3197, 3198, 3199, 3200
3201, 3202, 3203, 3204, 3205, 3206, 3207, 3208, 3209, 3210, 3211, 3212, 3213, 3214, 3215, 3216
3217, 3218, 3219, 3220, 3221, 3222, 3223, 3224, 3225, 3226, 3227, 3228, 3229, 3230, 3231, 3232
3233, 3234, 3235, 3236, 3237, 3238, 3239, 3240, 3241, 3242, 3243, 3244, 3245, 3246, 3247, 3248
3249, 3250, 3251, 3252, 3253, 3254, 3255, 3256, 3257, 3258, 3259, 3260, 3261, 3262, 3263, 3264
3265, 3266, 3267, 3268, 3269, 3270, 3271, 3272, 3273, 3274, 3275, 3276, 3277, 3278, 3279, 3280
3281, 3282, 3283, 3284, 3285, 3286, 3287, 3288, 3289, 3290, 3291, 3292, 3293, 3294, 3295, 3296
3297, 3298, 3299, 3300, 3301, 3302, 3303, 3304, 3305, 3306, 3307, 3308, 3309, 3310, 3311, 3312
3313, 3314, 3315, 3316, 3317, 3318, 3319, 3320, 3321, 3322, 3323, 3324, 3325, 3326, 3327, 3328
3329, 3330, 3331, 3332, 3333, 3334, 3335, 3336, 3337, 3338, 3339, 3340, 3341, 3342, 3343, 3344
3345, 3346, 3347, 3348, 3349, 3350, 3351, 3352, 3353, 3354, 3355, 3356, 3357, 3358, 3359, 3360
3361, 3362, 3363, 3364, 3365, 3366, 3367, 3368, 3369, 3370, 3371, 3372, 3373, 3374, 3375, 3376
3377, 3378, 3379, 3380, 3381, 3382, 3383, 3384, 3385, 3386, 3387, 3388, 3389, 3390, 3391, 3392
3393, 3394, 3395, 3396, 3397, 3398, 3399, 3400, 3401, 3402, 3403, 3404, 3405, 3406, 3407, 3408
3409, 3410, 3411, 3412, 3413, 3414, 3415, 3416
*Elset, elset=side_shell_section_4
545, 546, 547, 548, 549, 550, 551, 552, 553, 554, 555, 556, 557, 558, 559, 560
561, 562, 563, 564, 565, 566, 567, 568, 569, 570, 571, 572, 573, 574, 575, 576
577, 578, 579, 580, 581, 582, 583, 584, 585, 586, 587, 588, 589, 590, 591, 592
593, 594, 595, 596, 597, 598, 599, 600, 601, 602, 603, 604, 605, 606, 607, 608
609, 610, 611, 612, 613, 614, 615, 616, 617, 618, 619, 620, 621, 622, 623, 624
625, 626, 627, 628, 629, 630, 631, 632, 633, 634, 635, 636, 637, 638, 639, 640
641, 642, 643, 644, 645, 646, 647, 648, 649, 650, 651, 652, 653, 654, 655, 656
657, 658, 659, 660, 661, 662, 663, 664, 665, 666, 667, 668, 669, 670, 671, 672
673, 674, 675, 676, 677, 678, 679, 680, 681, 682, 683, 684, 685, 686, 687, 688
689, 690, 691, 692, 693, 694, 695, 696, 697, 698, 699, 700, 701, 702, 703, 704
705, 706, 707, 708, 709, 710, 711, 712, 713, 714, 715, 716, 717, 718, 719, 720
721, 722, 723, 724, 725, 726, 727, 728, 729, 730, 731, 732, 733, 734, 735, 736
737, 738, 739, 740, 741, 742, 743, 744, 745, 746, 747, 748, 749, 750, 751, 752
753, 754, 755, 756, 757, 758, 759, 760, 761, 762, 763, 764, 765, 766, 767, 768
769, 770, 771, 772, 773, 774, 775, 776
*Elset, elset=end_shell_section_1
2865, 2866, 2867, 2868, 2869, 2870, 2871, 2872, 2873, 2874, 2875, 2876, 2877, 2878, 2879, 2880
2881, 2882, 2883, 2884, 2885, 2886, 2887, 2888, 2889, 2890, 2891, 2892, 2893, 2894, 2895, 2896
2897, 2898, 2899, 2900, 2901, 2902, 2903, 2904, 2905, 2906, 2907, 2908, 2909, 2910, 2911, 2912
2913, 2914, 2915, 2916, 2917, 2918, 2919, 2920, 2921, 2922, 2923, 2924, 2925, 2926, 2927, 2928
2929, 2930, 2931, 2932, 2933, 2934, 2935, 2936, 2937, 2938, 2939, 2940, 2941, 2942, 2943, 2944
2945, 2946, 2947, 2948, 2949, 2950, 2951, 2952, 2953, 2954, 2955, 2956, 2957, 2958, 2959, 2960
2961, 2962, 2963, 2964, 2965, 2966, 2967, 2968, 2969, 2970, 2971, 2972, 2973, 2974, 2975, 2976
2977, 2978, 2979, 2980, 2981, 2982, 2983, 2984, 2985, 2986, 2987, 2988, 2989, 2990, 2991, 2992
2993, 2994, 2995, 2996, 2997, 2998, 2999, 3000, 3001, 3002, 3003, 3004, 3005, 3006, 3007, 3008
3009, 3010, 3011, 3012, 3013, 3014, 3015, 3016, 3017, 3018, 3019, 3020, 3021, 3022, 3023, 3024
5497, 5498, 5499, 5500, 5501, 5502, 5503, 5504, 5505, 5506, 5507, 5508, 5509, 5510, 5511, 5512
5513, 5514, 5515, 5516, 5517, 5518, 5519, 5520, 5521, 5522, 5523, 5524, 5525, 5526, 5527, 5528
5529, 5530, 5531, 5532, 5533, 5534, 5535, 5536, 5537, 5538, 5539, 5540, 5541, 5542, 5543, 5544
5545, 5546, 5547, 5548, 5549, 5550, 5551, 5552, 5553, 5554, 5555, 5556, 5557, 5558, 5559, 5560
5561, 5562, 5563, 5564, 5565, 5566, 5567, 5568, 5569, 5570, 5571, 5572, 5573, 5574, 5575, 5576
5577, 5578, 5579, 5580, 5581, 5582, 5583, 5584, 5585, 5586, 5587, 5588, 5589, 5590, 5591, 5592
5593, 5594, 5595, 5596, 5597, 5598, 5599, 5600, 5601, 5602, 5603, 5604, 5605, 5606, 5607, 5608
5609, 5610, 5611, 5612, 5613, 5614, 5615, 5616, 5617, 5618, 5619, 5620, 5621, 5622, 5623, 5624
5625, 5626, 5627, 5628, 5629, 5630, 5631, 5632, 5633, 5634, 5635, 5636, 5637, 5638, 5639, 5640
5641, 5642, 5643, 5644, 5645, 5646, 5647, 5648, 5649, 5650, 5651, 5652, 5653, 5654, 5655, 5656
*Elset, elset=end_shell_section_2
3025, 3026, 3027, 3028, 3029, 3030, 3031, 3032, 3033, 3034, 3035, 3036, 3037, 3038, 3039, 3040
3041, 3042, 3043, 3044, 3045, 3046, 3047, 3048, 3049, 3050, 3051, 3052, 3053, 3054, 3055, 3056
3057, 3058, 3059, 3060, 3061, 3062, 3063, 3064, 3065, 3066, 3067, 3068, 3069, 3070, 3071, 3072
3073, 3074, 3075, 3076, 3077, 3078, 3079, 3080, 3081, 3082, 3083, 3084, 3085, 3086, 3087, 3088
3089, 3090, 3091, 3092, 3093, 3094, 3095, 3096, 3097, 3098, 3099, 3100, 3101, 3102, 3103, 3104
3105, 3106, 3107, 3108, 3109, 3110, 3111, 3112, 3113, 3114, 3115, 3116, 3117, 3118, 3119, 3120
3121, 3122, 3123, 3124, 3125, 3126, 3127, 3128, 3129, 3130, 3131, 3132, 3133, 3134, 3135, 3136
3137, 3138, 3139, 3140, 3141, 3142, 3143, 3144, 3145, 3146, 3147, 3148, 3149, 3150, 3151, 3152
3153, 3154, 3155, 3156, 3157, 3158, 3159, 3160, 3161, 3162, 3163, 3164, 3165, 3166, 3167, 3168
3169, 3170, 3171, 3172, 3173, 3174, 3175, 3176, 3177, 3178, 3179, 3180, 3181, 3182, 3183, 3184
5657, 5658, 5659, 5660, 5661, 5662, 5663, 5664, 5665, 5666, 5667, 5668, 5669, 5670, 5671, 5672
5673, 5674, 5675, 5676, 5677, 5678, 5679, 5680, 5681, 5682, 5683, 5684, 5685, 5686, 5687, 5688
5689, 5690, 5691, 5692, 5693, 5694, 5695, 5696, 5697, 5698, 5699, 5700, 5701, 5702, 5703, 5704
5705, 5706, 5707, 5708, 5709, 5710, 5711, 5712, 5713, 5714, 5715, 5716, 5717, 5718, 5719, 5720
5721, 5722, 5723, 5724, 5725, 5726, 5727, 5728, 5729, 5730, 5731, 5732, 5733, 5734, 5735, 5736
5737, 5738, 5739, 5740, 5741, 5742, 5743, 5744, 5745, 5746, 5747, 5748, 5749, 5750, 5751, 5752
5753, 5754, 5755, 5756, 5757, 5758, 5759, 5760, 5761, 5762, 5763, 5764, 5765, 5766, 5767, 5768
5769, 5770, 5771, 5772, 5773, 5774, 5775, 5776, 5777, 5778, 5779, 5780, 5781, 5782, 5783, 5784
5785, 5786, 5787, 5788, 5789, 5790, 5791, 5792, 5793, 5794, 5795, 5796, 5797, 5798, 5799, 5800
5801, 5802, 5803, 5804, 5805, 5806, 5807, 5808, 5809, 5810, 5811, 5812, 5813, 5814, 5815, 5816
*shellsection, elset=side_shell_section_4, controls=EC-1, material=FEP04
1.5, 3
*shellsection, elset=mid_shell_section, controls=EC-1, material=FEP04
0.7, 3
*shellsection, elset=side_shell_section_2, controls=EC-1, material=FEP04
1.5, 3
*shellsection, elset=end_shell_section_1, controls=EC-1, material=FEP04
1.5, 3
*shellsection, elset=end_shell_section_2, controls=EC-1, material=FEP04
1.5, 3
*shellsection, elset=side_shell_section_3, controls=EC-1, material=FEP04
1.5, 3
*shellsection, elset=side_shell_section_1, controls=EC-1, material=FEP04
1.5, 3
*ELSET, ELSET=RIGID_END1
end_shell_section_1,
*rigidbody, refnode=REF_NODE_END1, elset=RIGID_END1
** ----------------------------------------------------------------
*surface, type=ELEMENT, name=shell_surface
mid_shell_section,
side_shell_section_1,
side_shell_section_2,
side_shell_section_3,
side_shell_section_4,
end_shell_section_1,
end_shell_section_2,
*rigidbody, refnode=REF_NODE_END2, elset=RIGID_END2
*surface, name=side_shell_section_1
side_shell_section_1, SNEG
*surface, name=side_shell_section_2
side_shell_section_2, SNEG
*surface, name=side_shell_section_3
side_shell_section_3, SNEG
*surface, name=side_shell_section_4
side_shell_section_4, SNEG
**
**  Fasteners
**
*NODE
15976, 225.172394, 0.75, 51.9047012
16012, 177.586197, 0.75, 51.9047012
16048, 130, 0.75, 51.9047012
16084, 82.4137878, 0.75, 51.9047012
16120, 34.8275909, 0.75, 51.9047012
**
12115, 34.8275909, 0.75, -51.9047012
12151, 82.4137878, 0.75, -51.9047012
12593, 130, 0.75, -51.9047012
13161, 177.586197, 0.75, -51.9047012
13197, 225.172394, 0.75, -51.9047012
*nset, nset=fastener_nset1
15976, 16012, 16048, 16084, 16120
*nset, nset=fastener_nset2
12115, 12151, 12593, 13161, 13197
***********************************************************
** ADD CONNECTOR SECTION DEFINITIONS
**
**
***********************************************************
** ADD FASTENER DEFINITIONS
**
**
***********************************************************
** ADD FASTENER PROPERTY DEFINITION
**
**
**
** Assembly Nsets
**
*Nset, nset=REF_NODE_END1
1381
*Nset, nset=REF_NODE_END2
6875
**
** Assembly Elsets
**
*Elset, elset=RIGID_END2
3025, 3026, 3027, 3028, 3029, 3030, 3031, 3032, 3033, 3034, 3035, 3036, 3037, 3038, 3039, 3040
3041, 3042, 3043, 3044, 3045, 3046, 3047, 3048, 3049, 3050, 3051, 3052, 3053, 3054, 3055, 3056
3057, 3058, 3059, 3060, 3061, 3062, 3063, 3064, 3065, 3066, 3067, 3068, 3069, 3070, 3071, 3072
3073, 3074, 3075, 3076, 3077, 3078, 3079, 3080, 3081, 3082, 3083, 3084, 3085, 3086, 3087, 3088
3089, 3090, 3091, 3092, 3093, 3094, 3095, 3096, 3097, 3098, 3099, 3100, 3101, 3102, 3103, 3104
3105, 3106, 3107, 3108, 3109, 3110, 3111, 3112, 3113, 3114, 3115, 3116, 3117, 3118, 3119, 3120
3121, 3122, 3123, 3124, 3125, 3126, 3127, 3128, 3129, 3130, 3131, 3132, 3133, 3134, 3135, 3136
3137, 3138, 3139, 3140, 3141, 3142, 3143, 3144, 3145, 3146, 3147, 3148, 3149, 3150, 3151, 3152
3153, 3154, 3155, 3156, 3157, 3158, 3159, 3160, 3161, 3162, 3163, 3164, 3165, 3166, 3167, 3168
3169, 3170, 3171, 3172, 3173, 3174, 3175, 3176, 3177, 3178, 3179, 3180, 3181, 3182, 3183, 3184
5657, 5658, 5659, 5660, 5661, 5662, 5663, 5664, 5665, 5666, 5667, 5668, 5669, 5670, 5671, 5672
5673, 5674, 5675, 5676, 5677, 5678, 5679, 5680, 5681, 5682, 5683, 5684, 5685, 5686, 5687, 5688
5689, 5690, 5691, 5692, 5693, 5694, 5695, 5696, 5697, 5698, 5699, 5700, 5701, 5702, 5703, 5704
5705, 5706, 5707, 5708, 5709, 5710, 5711, 5712, 5713, 5714, 5715, 5716, 5717, 5718, 5719, 5720
5721, 5722, 5723, 5724, 5725, 5726, 5727, 5728, 5729, 5730, 5731, 5732, 5733, 5734, 5735, 5736
5737, 5738, 5739, 5740, 5741, 5742, 5743, 5744, 5745, 5746, 5747, 5748, 5749, 5750, 5751, 5752
5753, 5754, 5755, 5756, 5757, 5758, 5759, 5760, 5761, 5762, 5763, 5764, 5765, 5766, 5767, 5768
5769, 5770, 5771, 5772, 5773, 5774, 5775, 5776, 5777, 5778, 5779, 5780, 5781, 5782, 5783, 5784
5785, 5786, 5787, 5788, 5789, 5790, 5791, 5792, 5793, 5794, 5795, 5796, 5797, 5798, 5799, 5800
5801, 5802, 5803, 5804, 5805, 5806, 5807, 5808, 5809, 5810, 5811, 5812, 5813, 5814, 5815, 5816
*sectioncontrols, name=EC-1, hourglass=STIFFNESS
1., 1., 1.
*amplitude, name=AMP1, DEFINITION=SMOOTH STEP
0., 0., 0.04, 1.0
*material, name=FEP04
*density
3.5E-08,
*elastic
207000., 0.3
*plastic
185.301, 0.
207.861, 0.008121
238.332, 0.020301
266.223, 0.038573
286.672, 0.065979
316.451, 0.10709
355.946, 0.168755
402.373, 0.261253
468.442, 0.4
1201.66, 2.
*surfaceinteraction, name=DEFAULT
*boundary
REF_NODE_END1, ENCASTRE
*boundary
REF_NODE_END2, 2, 2
REF_NODE_END2, 3, 3
REF_NODE_END2, 4, 4
REF_NODE_END2, 5, 5
REF_NODE_END2, 6, 6
*Step, name=Step-1
*dynamic, explicit, elementbyelement
, 0.04
*bulkviscosity
0.06, 1.2
*variablemassscaling, dt=1e-06, type=BELOWMIN, frequency=10
*boundary, amplitude=AMP1, type=DISPLACEMENT
REF_NODE_END2, 1, 1, -200.0
*contact, op=NEW
*contactinclusions
shell_surface, 
*SURFACE PROPERTY ASSIGNMENT, PROPERTY=FEATURE EDGE CRITERIA
 , NO FEATURE EDGES
*SURFACE PROPERTY ASSIGNMENT, PROPERTY=THICKNESS
shell_surface, 1.4
*output, field, time interval=0.001, variable=preselect
*nodeoutput
A, U, V
*OUTPUT, HISTORY, VARIABLE=PRESELECT, FILTER=ANTIALIASING, TIMEINTERVAL=0.0001
*NODE OUTPUT, NSET=REF_NODE_END2
U1, V1, A1, RF1
*ELEMENT OUTPUT, ELSET=FASTENERS1
** RELATIVE DISPLACEMENT COMPONENTS
CU,
** TOTAL FORCE COMPONENTS
CTF,
*endstep
