*heading
*preprint, model=yes
*node,nset=all_nodes
  26000,   3031.16406,   905.684082,   731.826172
  26001,   3027.84595,   876.696228,   745.263916
  26002,   3024.52808,   847.708374,   758.701416
  26003,   3030.61011,   905.643616,   720.573425
  26004,   3026.35596,   877.068298,   720.083984
  26005,   3022.10205,   848.492981,   719.594727
  26006,   3030.05591,   905.603088,   709.320618
  26007,   3024.86597,    877.44043,   694.904297
  26008,     3019.677,   849.277588,   680.487976
  26009,   3032.08301,   910.588074,   739.341919
  26010,   3039.81909,   891.193298,   748.409485
  26011,   3048.01294,   874.647522,   761.248474
  26012,   3071.50098,   900.792786,   763.768616
  26013,   3036.77588,   915.522888,   763.739929
  26014,   3046.55493,   918.013489,   764.895386
  26015,   3056.33301,   920.504211,   766.050903
  26016,   3096.65405,   911.320374,    763.67041
  26017,   3097.59204,   903.651428,   763.271606
  26018,   3073.79492,   902.315002,   770.405518
  26019,    3097.7981,   904.129211,   768.742493
** ... 3442 like lines cut
**
*ELEMENT, TYPE=S3RS, ELSET=DOOR-INNER-LEFT
   14089,    27211,    27206,    27205
   14090,    27232,    27240,    27231
   14091,    27241,    27240,    27238
   14102,    27239,    27248,    27241
   14103,    27250,    27241,    27248
   14104,    27254,    27253,    27252
   14132,    27273,    27298,    27285
   14133,    27277,    27284,    27279
   14134,    27271,    27283,    27269
   14135,    27285,    27298,    27284
   14228,    27383,    27868,    27000
   14236,    27413,    27414,    27412
   14237,    27415,    27416,    27019
   14246,    27413,    27417,    27416
   14248,    27407,    27408,    27411
   14254,    27423,    27259,    27367
   14273,    27446,    27438,    27457
   14277,    27450,    27456,    27452
   14305,    27257,    27247,    27491
   14311,    27456,    27489,    27458
** ... 28 like lines cut
*ELEMENT, TYPE=S4RS, ELSET=DOOR-INNER-LEFT
   13908,    27001,    27002,    27004,    27003
   13909,    27003,    27004,    27006,    27005
   13910,    27005,    27006,    27008,    27007
   13911,    27010,    27001,    27003,    27011
   13912,    27011,    27003,    27005,    27012
   13913,    27012,    27005,    27007,    27013
   13914,    27010,    27011,    27016,    27015
   13915,    27011,    27012,    27017,    27016
   13916,    27012,    27013,    27018,    27017
   13917,    27020,    27015,    27016,    27021
   13918,    27021,    27016,    27017,    27022
   13919,    27022,    27017,    27018,    27023
   13920,    27007,    27008,    27025,    27024
   13921,    27024,    27025,    27027,    27026
   13922,    27026,    27027,    27029,    27028
   13923,    27028,    27029,    27031,    27030
   13924,    27007,    27024,    27032,    27013
   13925,    27024,    27026,    27033,    27032
   13926,    27026,    27028,    27034,    27033
   13927,    27028,    27030,    27035,    27034
** ... 695 like lines cut
*SHELL SECTION, CONTROLS=SHELLCONTROLS, ELSET=DOOR-INNER-LEFT, MATERIAL=ElasticPlastic-2
    1.2400,     3
*ELEMENT, TYPE=S3RS, ELSET=DOOR-OUTER-LEFT
   18155,    40255,    40250,    40259
   18381,    40292,    40293,    40536
   18397,    40529,    40274,    40319
   18398,    40319,    40320,    40529
*ELEMENT, TYPE=S4RS, ELSET=DOOR-OUTER-LEFT
   17933,    40000,    40003,    40004,    40001
   17934,    40003,    40006,    40007,    40004
   17935,    40004,    40007,    40008,    40005
   17936,    40006,    40009,    40010,    40007
   17937,    40007,    40010,    40011,    40008
   17938,    40009,    40012,    40013,    40010
   17939,    40010,    40013,    40014,    40011
   17940,    40001,    40004,    40017,    40015
   17941,    40015,    40017,    40016,    40002
   17942,    40017,    40004,    40005,    40016
   17943,    40018,    40019,    40021,    40020
   17944,    40020,    40021,    40002,    40016
   17945,    40022,    40026,    40027,    40023
   17946,    40023,    40027,    40028,    40024
   17947,    40024,    40028,    40029,    40025
   17948,    40026,    40031,    40032,    40027
   17949,    40027,    40032,    40033,    40028
   17950,    40028,    40033,    40034,    40029
   17951,    40029,    40034,    40035,    40030
   17952,    40036,    40014,    40038,    40037
** ... 442 like lines cut
*SHELL SECTION, CONTROLS=SHELLCONTROLS, ELSET=DOOR-OUTER-LEFT, MATERIAL=ElasticPlastic-1
    0.9000,     3
**
*ELEMENT, TYPE=S3RS, ELSET=DOOR-SIDEB-LEFT
   16051,    32399,    32467,    32192
   16052,    32467,    32125,    32192
   16053,    32128,    32464,    32213
   16054,    32464,    32398,    32213
*ELEMENT, TYPE=S4RS, ELSET=DOOR-SIDEB-LEFT
   15662,    32000,    32001,    32003,    32002
   15663,    32002,    32003,    32005,    32004
   15664,    32001,    32006,    32007,    32003
   15665,    32003,    32007,    32008,    32005
   15666,    32011,    32012,    32013,    32009
   15667,    32009,    32013,    32014,    32010
   15668,    32012,    32015,    32016,    32013
   15669,    32013,    32016,    32017,    32014
   15670,    32106,    32109,    32215,    32214
   15671,    32214,    32215,    32051,    32043
   15672,    32106,    32214,    32216,    32021
   15673,    32214,    32043,    32059,    32216
   15674,    32025,    32026,    32219,    32218
   15675,    32218,    32219,    32027,    32020
   15676,    32027,    32219,    32220,    32034
   15677,    32219,    32026,    32035,    32220
   15678,    32067,    32080,    32222,    32221
   15679,    32221,    32222,    32035,    32026
   15680,    32025,    32223,    32221,    32026
   15681,    32223,    32060,    32067,    32221
** ... 370 like lines cut
*SHELL SECTION, CONTROLS=SHELLCONTROLS, ELSET=DOOR-SIDEB-LEFT, MATERIAL=ElasticPlastic-2
    2.4000,     3
**
*ELEMENT, TYPE=S4RS, ELSET=DOOR-SIDEBAR-REINF-LEFT
   16664,    35000,    35001,    35089,    35088
   16665,    35088,    35089,    35003,    35002
   16666,    35002,    35003,    35091,    35090
   16667,    35090,    35091,    35005,    35004
   16668,    35004,    35005,    35093,    35092
   16669,    35092,    35093,    35007,    35006
   16670,    35006,    35007,    35095,    35094
   16671,    35094,    35095,    35009,    35008
   16672,    35008,    35009,    35097,    35096
   16673,    35096,    35097,    35011,    35010
   16674,    35010,    35011,    35099,    35098
   16675,    35098,    35099,    35013,    35012
   16676,    35012,    35013,    35101,    35100
   16677,    35100,    35101,    35015,    35014
   16678,    35014,    35015,    35103,    35102
   16679,    35102,    35103,    35017,    35016
   16680,    35016,    35017,    35105,    35104
   16681,    35104,    35105,    35019,    35018
   16682,    35018,    35019,    35107,    35106
   16683,    35106,    35107,    35021,    35020
** ... 120 like lines cut
*SHELL SECTION, CONTROLS=SHELLCONTROLS, ELSET=DOOR-SIDEBAR-REINF-LEFT, MATERIAL=ElasticPlastic-2
    1.8000,     3
**
*ELEMENT, TYPE=S3RS, ELSET=DOOR-SIDEB-MTG1-LEFT
   16068,    33032,    33034,    33024
   16069,    33034,    33036,    33024
   16246,    33058,    33017,    33018
   16247,    33017,    33058,    33005
   16248,    33023,    33015,    33009
   16249,    33015,    33023,    33024
   16250,    33024,    33038,    33015
   16251,    33038,    33024,    33037
   16252,    33037,    33036,    33035
   16253,    33036,    33037,    33024
*ELEMENT, TYPE=S4RS, ELSET=DOOR-SIDEB-MTG1-LEFT
   16056,    33058,    33002,    33006,    33005
   16057,    33002,    33000,    33007,    33006
   16058,    33021,    33022,    33057,    33012
   16059,    33022,    33023,    33009,    33057
   16060,    33023,    33022,    33026,    33025
   16061,    33022,    33021,    33027,    33026
   16062,    33027,    33028,    33029,    33026
   16063,    33026,    33029,    33030,    33025
   16064,    33030,    33031,    33032,    33025
   16065,    33031,    33033,    33034,    33032
   16066,    33033,    33035,    33036,    33034
   16067,    33024,    33023,    33025,    33032
   16070,    33008,    33010,    33040,    33039
   16071,    33039,    33040,    33057,    33009
   16072,    33010,    33011,    33041,    33040
   16073,    33040,    33041,    33012,    33057
   16074,    33015,    33042,    33039,    33009
   16075,    33042,    33016,    33008,    33039
   16076,    33016,    33043,    33044,    33008
   16077,    33043,    33017,    33005,    33044
** ... 17 like lines cut
*SHELL SECTION, CONTROLS=SHELLCONTROLS, ELSET=DOOR-SIDEB-MTG1-LEFT, MATERIAL=ElasticPlastic-2
    2.0000,     3
*ELEMENT, TYPE=S3RS, ELSET=DOOR-SIDEB-MTG3-LEFT
   16262,    33134,    33130,    33126
   16263,    33126,    33125,    33134
   16264,    33129,    33133,    33137
   16265,    33137,    33122,    33129
*ELEMENT, TYPE=S4RS, ELSET=DOOR-SIDEB-MTG3-LEFT
   16134,    33120,    33149,    33150,    33124
   16135,    33149,    33121,    33125,    33150
   16136,    33126,    33151,    33150,    33125
   16137,    33151,    33127,    33124,    33150
   16138,    33130,    33152,    33151,    33126
   16139,    33152,    33131,    33127,    33151
   16140,    33134,    33153,    33152,    33130
   16141,    33153,    33135,    33131,    33152
   16142,    33119,    33154,    33155,    33123
   16143,    33154,    33120,    33124,    33155
   16144,    33127,    33156,    33155,    33124
   16145,    33156,    33128,    33123,    33155
   16146,    33131,    33157,    33156,    33127
   16147,    33157,    33132,    33128,    33156
   16148,    33135,    33158,    33157,    33131
   16149,    33158,    33136,    33132,    33157
   16150,    33128,    33159,    33160,    33123
   16151,    33159,    33129,    33122,    33160
   16152,    33118,    33161,    33160,    33122
   16153,    33161,    33119,    33123,    33160
** ... 36 like lines cut
*SHELL SECTION, CONTROLS=SHELLCONTROLS, ELSET=DOOR-SIDEB-MTG3-LEFT, MATERIAL=ElasticPlastic-2
    2.0000,     3
**
*ELEMENT, TYPE=S4RS, ELSET=DOOR-SIDEB-ST1-LEFT
   15614,    31000,    31032,    31033,    31004
   15615,    31032,    31001,    31005,    31033
   15616,    31001,    31034,    31035,    31005
   15617,    31034,    31002,    31006,    31035
   15618,    31002,    31036,    31037,    31006
   15619,    31036,    31003,    31007,    31037
   15620,    31008,    31038,    31039,    31012
   15621,    31038,    31009,    31013,    31039
   15622,    31009,    31040,    31055,    31013
   15623,    31040,    31010,    31014,    31055
   15624,    31010,    31041,    31042,    31014
   15625,    31041,    31011,    31015,    31042
   15626,    31016,    31017,    31044,    31043
   15627,    31043,    31044,    31019,    31018
   15628,    31018,    31019,    31046,    31045
   15629,    31045,    31046,    31021,    31020
   15630,    31020,    31021,    31048,    31047
   15631,    31047,    31048,    31023,    31022
   15632,    31024,    31049,    31050,    31028
   15633,    31049,    31025,    31029,    31050
** ... 4 like lines cut
*SHELL SECTION, CONTROLS=SHELLCONTROLS, ELSET=DOOR-SIDEB-ST1-LEFT, MATERIAL=ElasticPlastic-2
    1.5000,     3
**
*ELEMENT, TYPE=S4RS, ELSET=DOOR-TOPBAR-INN-LEFT
   16944,    36000,    36001,    36006,    36008
   16945,    36001,    36002,    36005,    36006
   16946,    36002,    36003,    36007,    36005
   16947,    36003,    36004,    36009,    36007
   16948,    36008,    36006,    36011,    36013
   16949,    36006,    36005,    36010,    36011
   16950,    36005,    36007,    36012,    36010
   16951,    36007,    36009,    36015,    36012
   16952,    36011,    36010,    36014,    36013
   16953,    36010,    36012,    36015,    36014
   16954,    36000,    36008,    36018,    36016
   16955,    36016,    36018,    36019,    36017
   16956,    36008,    36013,    36020,    36018
   16957,    36018,    36020,    36021,    36019
   16958,    36022,    36024,    36025,    36023
   16959,    36023,    36025,    36009,    36004
   16960,    36024,    36026,    36027,    36025
   16961,    36025,    36027,    36015,    36009
   16962,    36017,    36019,    36032,    36028
   16963,    36028,    36032,    36031,    36029
** ... 189 like lines cut
*SHELL SECTION, CONTROLS=SHELLCONTROLS, ELSET=DOOR-TOPBAR-INN-LEFT, MATERIAL=ElasticPlastic-2
    1.0000,     3
**
*ELEMENT, TYPE=S3RS, ELSET=DOOR-TOPBAR-OUT-LEFT
   17617,    38220,    38315,    38015
*ELEMENT, TYPE=S4RS, ELSET=DOOR-TOPBAR-OUT-LEFT
   17362,    38000,    38001,    38007,    38008
   17363,    38001,    38002,    38005,    38007
   17364,    38002,    38003,    38006,    38005
   17365,    38003,    38004,    38009,    38006
   17366,    38008,    38007,    38012,    38013
   17367,    38007,    38005,    38010,    38012
   17368,    38005,    38006,    38011,    38010
   17369,    38006,    38009,    38015,    38011
   17370,    38012,    38010,    38014,    38013
   17371,    38010,    38011,    38015,    38014
   17372,    38016,    38018,    38019,    38017
   17373,    38017,    38019,    38008,    38013
   17374,    38018,    38020,    38021,    38019
   17375,    38019,    38021,    38000,    38008
   17376,    38020,    38018,    38027,    38022
   17377,    38022,    38027,    38026,    38023
   17378,    38023,    38026,    38028,    38024
   17379,    38024,    38028,    38029,    38025
   17380,    38018,    38016,    38031,    38027
   17381,    38027,    38031,    38030,    38026
** ... 235 like lines cut
*SHELL SECTION, CONTROLS=SHELLCONTROLS, ELSET=DOOR-TOPBAR-OUT-LEFT, MATERIAL=ElasticPlastic-2
    1.0000,     3
**
*ELEMENT, TYPE=S4RS, ELSET=DOOR-WINDOWWG-LEFT
   17873,    39000,    39002,    39003,    39001
   17874,    39001,    39003,    39005,    39004
   17875,    39004,    39005,    39007,    39006
   17876,    39008,    39000,    39001,    39009
   17877,    39009,    39001,    39004,    39010
   17878,    39010,    39004,    39006,    39011
   17879,    39012,    39047,    39014,    39013
   17880,    39015,    39017,    39018,    39016
   17881,    39019,    39020,    39017,    39015
   17882,    39021,    39022,    39020,    39019
   17883,    39023,    39015,    39016,    39024
   17884,    39025,    39019,    39015,    39023
   17885,    39026,    39021,    39019,    39025
   17886,    39027,    39023,    39024,    39028
   17887,    39029,    39025,    39023,    39027
   17888,    39030,    39026,    39025,    39029
   17889,    39031,    39027,    39028,    39032
   17890,    39033,    39029,    39027,    39031
   17891,    39034,    39030,    39029,    39033
   17892,    39035,    39036,    39037,    39012
** ... 10 like lines cut
*SHELL SECTION, CONTROLS=SHELLCONTROLS, ELSET=DOOR-WINDOWWG-LEFT, MATERIAL=ElasticPlastic-2
    1.0000,     3
**
*ELEMENT, TYPE=S3RS, ELSET=DOOR-REINF-LEFT
   15444,    30024,    30034,    30016
   15445,    30001,    30016,    30034
   15446,    30044,    30022,    30018
   15487,    30045,    30084,    30038
   15507,    30089,    30102,    30018
   15512,    30105,    30103,    30006
   15523,    30007,    30017,    30008
*ELEMENT, TYPE=S4RS, ELSET=DOOR-REINF-LEFT
   15434,    30000,    30001,    30003,    30002
   15435,    30006,    30007,    30004,    30005
   15436,    30007,    30008,    30009,    30004
   15437,    30000,    30002,    30012,    30011
   15438,    30015,    30010,    30008,    30017
   15439,    30022,    30023,    30019,    30018
   15440,    30016,    30021,    30025,    30024
   15441,    30013,    30014,    30000,    30011
   15442,    30014,    30016,    30001,    30000
   15443,    30033,    30036,    30028,    30026
   15447,    30010,    30063,    30009,    30008
   15448,    30024,    30025,    30065,    30064
   15449,    30064,    30065,    30061,    30059
   15450,    30034,    30024,    30064,    30066
   15451,    30066,    30064,    30059,    30057
   15452,    30001,    30034,    30066,    30067
   15453,    30067,    30066,    30057,    30053
   15454,    30001,    30067,    30068,    30003
   15455,    30067,    30053,    30055,    30068
   15456,    30059,    30061,    30047,    30046
** ... 63 like lines cut
*SHELL SECTION, CONTROLS=SHELLCONTROLS, ELSET=DOOR-REINF-LEFT, MATERIAL=ElasticPlastic-2
    2.5000,     3
**
*ELEMENT, TYPE=S3RS, ELSET=DOOR-HINGE-LOW-LEFT
   13822,    26031,    26009,    26010
   13823,    26000,    26001,    26010
   13824,    26013,    26009,    26031
   13825,    26031,    26014,    26013
   13826,    26014,    26031,    26012
   13827,    26012,    26015,    26014
   13828,    26009,    26000,    26010
*ELEMENT, TYPE=S4RS, ELSET=DOOR-HINGE-LOW-LEFT
   13806,    26000,    26003,    26004,    26001
   13807,    26001,    26004,    26005,    26002
   13808,    26003,    26006,    26007,    26004
   13809,    26004,    26007,    26008,    26005
   13810,    26001,    26002,    26011,    26010
   13811,    26010,    26011,    26012,    26031
   13812,    26016,    26015,    26012,    26017
   13813,    26018,    26019,    26017,    26012
   13814,    26006,    26020,    26021,    26007
   13815,    26007,    26021,    26022,    26008
   13816,    26020,    26023,    26024,    26021
   13817,    26021,    26024,    26025,    26022
   13818,    26026,    26028,    26032,    26027
   13819,    26027,    26032,    26022,    26025
   13820,    26028,    26029,    26030,    26032
   13821,    26032,    26030,    26008,    26022
*SHELL SECTION, CONTROLS=SHELLCONTROLS, ELSET=DOOR-HINGE-LOW-LEFT, MATERIAL=ElasticPlastic-2
    6.4000,     3
*ELEMENT, TYPE=S3RS, ELSET=DOOR-HINGE-UP-LEFT
   13867,    26228,    26221,    26219
   13868,    26216,    26217,    26220
   13869,    26220,    26217,    26218
   13878,    26210,    26206,    26203
*ELEMENT, TYPE=S4RS, ELSET=DOOR-HINGE-UP-LEFT
   13852,    26211,    26213,    26239,    26212
   13853,    26212,    26239,    26210,    26209
   13854,    26213,    26214,    26215,    26239
   13855,    26239,    26215,    26206,    26210
   13856,    26216,    26202,    26205,    26217
   13857,    26217,    26205,    26208,    26218
   13858,    26219,    26221,    26216,    26220
   13859,    26222,    26224,    26225,    26223
   13860,    26223,    26225,    26219,    26220
   13861,    26226,    26227,    26225,    26224
   13862,    26227,    26228,    26219,    26225
   13863,    26218,    26240,    26223,    26220
   13864,    26240,    26229,    26222,    26223
   13865,    26230,    26231,    26240,    26218
   13866,    26231,    26232,    26229,    26240
   13870,    26200,    26203,    26234,    26233
   13871,    26233,    26234,    26204,    26201
   13872,    26203,    26206,    26235,    26234
   13873,    26234,    26235,    26207,    26204
   13874,    26204,    26207,    26237,    26236
** ... 4 like lines cut
*SHELL SECTION, CONTROLS=SHELLCONTROLS, ELSET=DOOR-HINGE-UP-LEFT, MATERIAL=ElasticPlastic-2
    6.4000,     3
**
*ELEMENT, TYPE=C3D8R, ELSET=DOOR-LOCK-LEFT
    2705,   800371,   800368,   800369,   800372,   800401,   800402,   800403,   800404
    2706,   800372,   800369,   800370,   800373,   800404,   800403,   800405,   800406
    2707,   800374,   800371,   800372,   800375,   800407,   800401,   800404,   800408
    2708,   800375,   800372,   800373,   800376,   800408,   800404,   800406,   800409
    2709,   800378,   800369,   800368,   800377,   800411,   800403,   800402,   800410
    2710,   800379,   800370,   800369,   800378,   800412,   800405,   800403,   800411
    2711,   800381,   800378,   800377,   800380,   800414,   800411,   800410,   800413
    2712,   800382,   800379,   800378,   800381,   800415,   800412,   800411,   800414
    2713,   800386,   800384,   800383,   800385,   800419,   800418,   800417,   800416
    2714,   800377,   800368,   800384,   800386,   800410,   800402,   800418,   800419
    2715,   800388,   800386,   800385,   800387,   800421,   800419,   800416,   800420
    2716,   800380,   800377,   800386,   800388,   800413,   800410,   800419,   800421
    2717,   800385,   800383,   800389,   800391,   800416,   800417,   800422,   800423
    2718,   800391,   800389,   800390,   800392,   800423,   800422,   800424,   800425
    2719,   800387,   800385,   800391,   800393,   800420,   800416,   800423,   800426
    2720,   800393,   800391,   800392,   800394,   800426,   800423,   800425,   800427
    2721,   800396,   800389,   800383,   800395,   800429,   800422,   800417,   800428
    2722,   800397,   800390,   800389,   800396,   800430,   800424,   800422,   800429
    2723,   800399,   800396,   800395,   800398,   800432,   800429,   800428,   800431
    2724,   800400,   800397,   800396,    800399,   800433,   800430,   800429,   800432
***
*SOLID SECTION, ELSET=DOOR-LOCK-LEFT, MATERIAL=Elastic-DOOR-LOCK
**
**
*ELEMENT, TYPE=S3RS, ELSET=CABIN-D-HINGE-UP-LEFT
   31084,    82133,    82135,    82134
   31102,    82032,    82027,    82028
*ELEMENT, TYPE=S4RS, ELSET=CABIN-D-HINGE-UP-LEFT
   31008,    82000,    82001,    82007,    82006
   31009,    82001,    82002,    82008,    82007
   31010,    82002,    82003,    82009,    82008
   31011,    82003,    82004,    82010,    82009
   31012,    82004,    82005,    82011,    82010
   31013,    82006,    82007,    82013,    82012
   31014,    82007,    82008,    82155,    82013
   31015,    82008,    82009,    82014,    82155
   31016,    82009,    82010,    82015,    82014
   31017,    82010,    82011,    82016,    82015
   31018,    82012,    82013,    82018,    82017
   31019,    82013,    82155,    82019,    82018
   31020,    82155,    82014,    82020,    82019
   31021,    82014,    82015,    82021,    82020
   31022,    82015,    82016,    82022,    82021
   31023,    82023,    82024,    82028,    82027
   31024,    82024,    82025,    82029,    82028
   31025,    82025,    82005,    82004,    82029
   31026,    82028,    82029,    82033,    82032
   31027,    82029,    82004,    82003,    82033
** ... 73 like lines cut
*SHELL SECTION, CONTROLS=SHELLCONTROLS, ELSET=CABIN-D-HINGE-UP-LEFT, MATERIAL=ElasticPlastic-1
    6.0270,     3
**
**
*ELEMENT, TYPE=S4RS, ELSET=CABIN-D-HINGE-LOW-LEFT
   31103,    83000,    83004,    83005,    83001
   31104,    83001,    83005,    83006,    83002
   31105,    83002,    83006,    83007,    83003
   31106,    83024,    83025,    83029,    83028
   31107,    83025,    83026,    83030,    83029
   31108,    83026,    83027,    83031,    83030
   31109,    83027,    83007,    83032,    83031
   31110,    83007,    83006,    83033,    83032
   31111,    83006,    83005,    83034,    83033
   31112,    83005,    83004,    83035,    83034
   31113,    83028,    83029,    83037,    83036
   31114,    83029,    83030,    83038,    83037
   31115,    83030,    83031,    83039,    83038
   31116,    83031,    83032,    83040,    83039
   31117,    83032,    83033,    83041,    83040
   31118,    83033,    83034,    83042,    83041
   31119,    83034,    83035,    83043,    83042
   31120,    83036,    83037,    83045,    83044
   31121,    83037,    83038,    83046,    83045
   31122,    83038,    83039,    83047,    83046
** ... 76 like lines cut
*SHELL SECTION, CONTROLS=SHELLCONTROLS, ELSET=CABIN-D-HINGE-LOW-LEFT, MATERIAL=ElasticPlastic-1
    5.9770,     3
**
*ELEMENT, TYPE=S4RS, ELSET=DOOR-CLOSURE-LEFT
   42678,   800154,   800157,   800156,   800153
   42679,   800155,   800158,   800157,   800154
   42680,   800157,   800160,   800159,   800156
   42681,   800158,   800161,   800160,   800157
   42682,   800160,   800163,   800162,   800159
   42683,   800161,   800164,   800163,   800160
   42684,   800163,   800166,   800165,   800162
   42685,   800164,   800167,   800166,   800163
   42686,   800166,   800169,   800168,   800165
   42687,   800167,   800170,   800169,   800166
   42688,   800169,   800172,   800171,   800168
   42689,   800170,   800173,   800172,   800169
   42690,   800172,   800175,   800174,   800171
   42691,   800173,   800176,   800175,   800172
   42692,   800175,   800178,   800177,   800174
   42693,   800176,   800179,   800178,   800175
   42694,   800178,   800181,   800180,   800177
   42695,   800179,   800182,   800181,   800178
   42696,   800181,   800184,   800183,   800180
   42697,   800182,   800185,   800184,   800181
** ... 44 like lines cut
*SHELL SECTION, CONTROLS=SHELLCONTROLS, ELSET=DOOR-CLOSURE-LEFT, MATERIAL=ElasticPlastic-2
    1.0000,     3
**
*SECTION CONTROLS, NAME=SHELLCONTROLS, HOURGLASS=STIFFNESS
**
*ELEMENT, TYPE=B31, ELSET=DOOR-LOCK-BEAM-LEFT
   54753,   800225,   800226
   54754,   800226,   800227
   54755,   800227,   800215
*BEAM GENERAL SECTION, ELSET=DOOR-LOCK-BEAM-LEFT, DENSITY=7.8900e-009,rotary inertia=isotropic
   28.2700,    63.6200,     0.0000,    63.6200,   127.2000

210000.0000, 80769.2308
**
*MPC
**BEAM,970872,40320
**BEAM,970874,40296
**BEAM,970877,40306
**BEAM,970879,40301
**BEAM,970882,40303
**BEAM,970884,40299
**BEAM,970886,40537
**BEAM,970850,40323
**BEAM,970815,40339
**BEAM,970786,40357
**BEAM,970755,40466
**BEAM,970758,40385
BEAM,40440,40443
**BEAM,970762,40452
**BEAM,970764,40495
**BEAM,970766,40491
**BEAM,970768,40526
**BEAM,970770,40429
BEAM,27557,27556
BEAM,27558,27556
BEAM,40241,27556
BEAM,27460,27459
BEAM,40218,27459
BEAM,27439,27438
BEAM,27440,27438
BEAM,40120,27438
BEAM,27434,27433
BEAM,40107,27433
BEAM,27254,27253
BEAM,40289,27253
BEAM,40292,27250
BEAM,40293,27250
BEAM,40536,27250
BEAM,40425,27231
BEAM,40426,27231
BEAM,40522,27184
BEAM,40523,27184
BEAM,27197,27186
** ... 306 like lines cut
**
**-------------------------------------------------------------------------
**
** Couplings for lower hinge: coupling reference nodes 9000009 and 9000010
**
**-------------------------------------------------------------------------
*NODE
9000010,3.060397e+003,  8.978824e+002, 7.169467e+02
*SURFACE,NAME=DOOR-HINGE-LOW-LT-COUP,TYPE=ELEMENT
DOOR-HINGE-LOW-LEFT,SPOS
*COUPLING,REF NODE=9000010,SURFACE=DOOR-HINGE-LOW-LT-COUP,CONSTRAINT NAME=DOOR-HINGE-LOW-LT-COUP
*DISTRIBUTING
****************
*NODE
9000009,3.060397e+003,  8.978824e+002, 7.169467e+02
*ELSET,ELSET=CABIN-D-HINGE-LOW-LT,GEN
31177,31179,1
31173,31175,1
31169,31171,1
31165,31167,1
31161,31164,1
31157,31160,1
31153,31156,1
*SURFACE,NAME=CABIN-D-HINGE-LOW-LT,TYPE=ELEMENT
CABIN-D-HINGE-LOW-LEFT,SNEG
*COUPLING,REF NODE=9000009,SURFACE=CABIN-D-HINGE-LOW-LT,CONSTRAINT NAME=CABIN-D-HINGE-LOW-LT
*DISTRIBUTING
**-------------------------------------------------------------------------
**
** Couplings for upper hinge: coupling reference nodes 9000011 and 9000012
**
**-------------------------------------------------------------------------
*NODE
9000012,3.060397e+003,  8.978824e+002, 1.057365e+003
*SURFACE,NAME=DOOR-HINGE-UP-LT-COUP,TYPE=ELEMENT
DOOR-HINGE-UP-LEFT,SPOS
*COUPLING,REF NODE=9000012,SURFACE=DOOR-HINGE-UP-LT-COUP,CONSTRAINT NAME=DOOR-HINGE-UP-LT-COUP
*DISTRIBUTING
****************
*NODE
9000011,3.060397e+003,  8.978824e+002, 1.057365e+003
*ELSET,ELSET=CABIN-D-HINGE-UP-LT,GEN
31031,31045,1
31008,31022,1
*SURFACE,NAME=CABIN-D-HINGE-UP-LT,TYPE=ELEMENT
CABIN-D-HINGE-UP-LEFT,SNEG
*COUPLING,REF NODE=9000011,SURFACE=CABIN-D-HINGE-UP-LT,CONSTRAINT NAME=CABIND-D-HINGE-UP-LT
*DISTRIBUTING
**-------------------------------------------------------------------------
**
** Couplings for lock and door closure
**
**-------------------------------------------------------------------------
*NSET,NSET=DOOR-LOCK-BEAMS-LT-COUP-1
800226,800227,800215
*NSET,NSET=DOOR-LOCK-LT-COUP-1,GEN
800401,800433,1
*NSET,NSET=DOOR-LOCK-LT-COUP
DOOR-LOCK-LT-COUP-1,
*SURFACE,NAME=DOOR-LOCK-LT-COUP,TYPE=NODE
DOOR-LOCK-LT-COUP,1
*COUPLING,REF NODE=800225,SURFACE=DOOR-LOCK-LT-COUP,CONSTRAINT NAME=DOOR-LOCK-LT-COUP
*DISTRIBUTING
****************
*SURFACE,TYPE=ELEMENT,NAME=DOOR-CLOSURE-LEFT
DOOR-CLOSURE-LEFT,SPOS
*COUPLING,REF NODE=1800215,SURFACE=DOOR-CLOSURE-LEFT,CONSTRAINT NAME=DOOR-CLOSURE-LEFT
*KINEMATIC
**---------------------------------------------------------------
**
** add dummy mass/rotary inertia to coupling ref nodes
**
*ELEMENT, TYPE=MASS, ELSET=door_left_mass
816001,9000010
816002,9000012
816003,1800215
*MASS, ELSET=door_left_mass
1e-06,
*ELEMENT, TYPE=ROTARYI, ELSET=door_left_rotary
816021,9000010
816022,9000012
816023,1800215
*ROTARY INERTIA, ELSET=door_left_rotary
1e-06,1e-06,1e-06
**
*ELEMENT, TYPE=MASS, ELSET=cabin_mass
812001,9000011
812003,9000009
*MASS, ELSET=cabin_mass
1e-06,
*ELEMENT, TYPE=ROTARYI, ELSET=cabin_rotary
812021,9000011
812023,9000009
*ROTARY INERTIA, ELSET=cabin_rotary
1e-06,1e-06,1e-06
**-------------------------------------------------------------------------
**
**                     DOOR HINGES DEFINITION
**
**-------------------------------------------------------------------------
**
***********************************************************
** ADD ORIENTATION DEFINITION
**
**
***********************************************************
** ADD CONNECTOR ELEMENT CONNECTIVITY DEFINITION
**
**
***********************************************************
** ADD CONNECTOR ELEMENT SECTION DEFINITION
**
**
***********************************************************
** ADD CONNECTOR BEHAVIOR DEFINITION
**
**
**-------------------------------------------------------------------------
*MATERIAL, NAME=ElasticPlastic-1
*DENSITY
     7.8900e-009,
*ELASTIC
     2.1000e+005,      3.0000e-001
*PLASTIC
     270.000,      0.0000e+000
    320.29999,     0.048790
    366.29999,     0.0953100
    402.50000,     0.1398000
    438.79999,     0.2231000
    448.50000,     0.2624000
    449.00000,     2.3980000
**
**
*MATERIAL, NAME=ElasticPlastic-2
*DENSITY
     7.8900e-009,
*ELASTIC
     2.1000e+005,      3.0000e-001
*PLASTIC
    350.00000,     0.0000000
    388.50000,     0.0487900
    429.00000,     0.0953100
    480.00000,     0.1823000
    493.79999,     0.2231000
    494.00000,     0.2624000
    504.00000,     2.3980000
**
**
*MATERIAL, NAME=Elastic-DOOR-LOCK
*DENSITY
     2.5000e-009,
*ELASTIC
     2.1000e+005,      3.0000e-001
**-------------------------------------------------------------------------
*Nset, nset=Set-19
 82005, 82011, 82016, 82022, 82023, 82024, 82025, 82039, 82040, 82041, 82042, 82064, 82070, 82075, 82081, 82086
 82087, 82088, 82089, 82090, 82091, 82092, 82093, 82094, 82096, 82097, 82098, 82099, 82100, 82101, 82103, 82104
 82105, 82106, 82107, 82108, 82110, 82111, 82112, 82113, 82114, 82115, 82117, 82118, 82119, 82120, 82121, 82122
 82123,
*Nset, nset=Set-20
 83004, 83005, 83006, 83007, 83024, 83025, 83026, 83027, 83028, 83029, 83030, 83031, 83032, 83033, 83034, 83035
 83036, 83037, 83038, 83039, 83040, 83041, 83042, 83043, 83044, 83045, 83046, 83047, 83048, 83049, 83050, 83051
 83052, 83053, 83054, 83055, 83056, 83057, 83058, 83059, 83060, 83061, 83062, 83063, 83064, 83065, 83066, 83067
 83068, 83069, 83070, 83071, 83072, 83073, 83074, 83075
*BOUNDARY
1800215, 1,6
Set-19, 1,6
Set-20, 1,6
**
**-------------------------------------------------------------------------
**
**                   Rigid pole definition
**
**-------------------------------------------------------------------------
**
*SYSTEM
2225.0, 1105.0, 200.0
*Node, nset=rigid_pole_nodes
      1,  -126.940002,           0.,        2000.
      2,  -126.940002,           0.,        1960.
      3,  -126.940002,           0.,        1920.
      4,  -126.940002,           0.,        1880.
      5,  -126.940002,           0.,        1840.
      6,  -126.940002,           0.,        1800.
      7,  -126.940002,           0.,        1760.
      8,  -126.940002,           0.,        1720.
      9,  -126.940002,           0.,        1680.
     10,  -126.940002,           0.,        1640.
     11,  -126.940002,           0.,        1600.
     12,  -126.940002,           0.,        1560.
     13,  -126.940002,           0.,        1520.
     14,  -126.940002,           0.,        1480.
     15,  -126.940002,           0.,        1440.
     16,  -126.940002,           0.,        1400.
     17,  -126.940002,           0.,        1360.
     18,  -126.940002,           0.,        1320.
     19,  -126.940002,           0.,        1280.
     20,  -126.940002,           0.,        1240.
** ... 2734 like lines cut
*Element, type=S4RS, elset=rigid_pole
   1,    1,    2,   53,   52
   2,    2,    3,   54,   53
   3,    3,    4,   55,   54
   4,    4,    5,   56,   55
   5,    5,    6,   57,   56
   6,    6,    7,   58,   57
   7,    7,    8,   59,   58
   8,    8,    9,   60,   59
   9,    9,   10,   61,   60
  10,   10,   11,   62,   61
  11,   11,   12,   63,   62
  12,   12,   13,   64,   63
  13,   13,   14,   65,   64
  14,   14,   15,   66,   65
  15,   15,   16,   67,   66
  16,   16,   17,   68,   67
  17,   17,   18,   69,   68
  18,   18,   19,   70,   69
  19,   19,   20,   71,   70
  20,   20,   21,   72,   71
** ... 2680 like lines cut
*SHELL SECTION, ELSET=RIGID_POLE, MATERIAL=ElasticPlastic-1
1.0,
*NODE, NSET=RIGID_POLE_REF_NODE
   2755, 0.0, 0.0, 0.0
*SYSTEM
**
***********************************************************
** ADD RIGID BODY DEFINITION
**
**
***********************************************************
** ADD DISPLACEMENT BOUNDARY CONDITIONS FOR RIGID BODY
**
**
**-------------------------------------------------------------------------
**
*SURFACE, NAME=SURFACE-DOOR-OUTER-LEFT
DOOR-OUTER-LEFT, SNEG
*SURFACE, NAME=SURFACE-DOOR-INNER-LEFT
DOOR-INNER-LEFT, SNEG
*SURFACE, NAME=SURFACE-DOOR-TOPBAR-OUT-LEFT
DOOR-TOPBAR-OUT-LEFT, SNEG
*CONTACT CLEARANCE, NAME=c1, ADJUST=YES, SEARCH ABOVE=0.0, SEARCH BELOW=10.0
*SURFACE, NAME=SURFACE_DOOR-SIDEB-MTG1-LEFT
DOOR-SIDEB-MTG1-LEFT,
**
**-------------------------------------------------------------------------
**
*STEP
*DYNAMIC, EXPLICIT, ELEMENT BY ELEMENT
,0.020
*VARIABLE MASS SCALING, TYPE=BELOW MIN, DT=1.2E-6, FREQUENCY=5
**
** General contact
**
*CONTACT
*CONTACT INCLUSIONS, ALL EXTERIOR
*CONTACT CLEARANCE ASSIGNMENT
SURFACE-DOOR-OUTER-LEFT, SURFACE-DOOR-INNER-LEFT, c1
SURFACE-DOOR-OUTER-LEFT, SURFACE-DOOR-TOPBAR-OUT-LEFT, c1
*SURFACE PROPERTY ASSIGNMENT, PROPERTY=FEATURE EDGE CRITERIA
 , PERIMETER EDGES
SURFACE_DOOR-SIDEB-MTG1-LEFT, 20.0
**
** Loading: velocity 30 km/h = 8333.33 mm/s
**
***********************************************************
** ADD VELOCITY BOUNDARY CONDITION FOR RIGID BODY
**
**
**
** Output requests
**
*OUTPUT, FIELD, NUMBER INTERVAL=20
*NODE OUTPUT
UT,VT,AT
*ELEMENT OUTPUT
S,PEEQ,
*CONTACT OUTPUT
CSTRESS, CFORCE
*OUTPUT, HISTORY, VAR=PRESELECT
*INCREMENTATION OUTPUT
DMASS,
*OUTPUT, HISTORY, FILTER=ANTIALIASING, TIME INTERVAL=1.0E-4
*NODE OUTPUT, NSET=RIGID_POLE_REF_NODE
U2, V2, A2, RF2,
*ELEMENT OUTPUT, ELSET=CONN_DOOR_HINGES
CTF, CU,
CEM1, CVM1,
*END STEP
