*Heading
**
** PARTS
**
*Part, name=plate
*Node, nset=All
      1,           9.,           2.,          1.5
      2,           9.,           2.,           0.
      3,          10.,           0.,           0.
      4,          10.,           0.,          1.5
      5,          15.,          10.,           0.
      6,          15.,           0.,           0.
      7,          15.,           0.,          1.5
      8,          15.,          10.,          1.5
      9,          7.5,          2.5,           0.
     10,          7.5,          10.,           0.
     11,          7.5,          10.,          1.5
     12,          7.5,          2.5,          1.5
     13,           6.,           2.,           0.
     14,           0.,          10.,           0.
     15,           6.,           2.,          1.5
     16,           0.,          10.,          1.5
     17,          18.,          10.,           0.
     18,          18.,          10.,          1.5
     19,          30.,          10.,          1.5
     20,          30.,          10.,           0.
** ... 652 like lines cut
*Element, type=C3D8I, elset=All
 1,  62, 273, 548, 223,   1,  29, 213,  40
 2, 273,  68, 248, 548,  29,   2,  30, 213
 3, 223, 548, 549, 224,  40, 213, 214,  39
 4, 548, 248, 249, 549, 213,  30,  31, 214
 5, 224, 549, 550, 225,  39, 214, 215,  38
 6, 549, 249, 250, 550, 214,  31,  32, 215
 7, 225, 550, 551, 226,  38, 215, 216,  37
 8, 550, 250, 251, 551, 215,  32,  33, 216
 9, 226, 551, 552, 227,  37, 216, 217,  36
10, 551, 251, 252, 552, 216,  33,  34, 217
11, 227, 552, 278,  53,  36, 217,  35,   4
12, 552, 252,  67, 278, 217,  34,   3,  35
13,  61, 274, 553, 228,  62, 273, 548, 223
14, 274,  69, 253, 553, 273,  68, 248, 548
15, 228, 553, 554, 229, 223, 548, 549, 224
16, 553, 253, 254, 554, 548, 248, 249, 549
17, 229, 554, 555, 230, 224, 549, 550, 225
18, 554, 254, 255, 555, 549, 249, 250, 550
19, 230, 555, 556, 231, 225, 550, 551, 226
20, 555, 255, 256, 556, 550, 250, 251, 551
** ... 352 like lines cut
*Solid Section, elset=All, material=aluminum
*End Part
**  
*Part, name=rivet
*Node, nset=All
      1,           0.,         1.25,          2.5
      2,          2.5,         1.25,           0.
      3,          2.5,           2.,           0.
      4,           0.,           2.,          2.5
      5,         3.25,         1.25,           0.
      6,         3.25,           2.,           0.
      7,           0.,           2.,         3.25
      8,           0.,         1.25,         3.25
      9,           0.,         1.25,           0.
     10,           0.,          0.5,           0.
     11,           0.,          0.5,          2.5
     12,          2.5,          0.5,           0.
     13,           0.,           2.,           0.
     14,         -2.5,         1.25,           0.
     15,         -2.5,           2.,           0.
     16,        -3.25,         1.25,           0.
     17,        -3.25,           2.,           0.
     18,           0.,         1.25,           4.
     19,           4.,         1.25,           0.
     20,          -4.,         1.25,           0.
** ... 1807 like lines cut
*Element, type=C3D8R, elset=All
 1,   1,  45, 430,  64,   8,  73, 439,  84
 2,  45,  46, 431, 430,  73,  72, 440, 439
 3,  46,  47, 432, 431,  72,  71, 441, 440
 4,  47,  48, 433, 432,  71,  70, 442, 441
 5,  48,  49, 434, 433,  70,  69, 443, 442
 6,  49,  50, 435, 434,  69,  68, 444, 443
 7,  50,  51, 436, 435,  68,  67, 445, 444
 8,  51,  52, 437, 436,  67,  66, 446, 445
 9,  52,  53, 438, 437,  66,  65, 447, 446
10,  53,   2,  54, 438,  65,   5,  74, 447
11,  64, 430,  63,   4,  84, 439,  75,   7
12, 430, 431,  62,  63, 439, 440,  76,  75
13, 431, 432,  61,  62, 440, 441,  77,  76
14, 432, 433,  60,  61, 441, 442,  78,  77
15, 433, 434,  59,  60, 442, 443,  79,  78
16, 434, 435,  58,  59, 443, 444,  80,  79
17, 435, 436,  57,  58, 444, 445,  81,  80
18, 436, 437,  56,  57, 445, 446,  82,  81
19, 437, 438,  55,  56, 446, 447,  83,  82
20, 438,  54,   3,  55, 447,  74,   6,  83
** ... 1344 like lines cut
*Solid Section, elset=All, material=titanium
*End Part
**  
**
** ASSEMBLY
**
*Assembly, name=Assembly
**  
*Instance, name=plate-1, part=plate
*End Instance
**  
*Instance, name=plate-2, part=plate
 15.,  0.,  0.
 15.,  0.,  0.,  15.,  1.,  0.,  180.
*End Instance
**  
*Instance, name=rivet-1, part=rivet
 7.5,  0.,  1.0
 7.5,  0.,  1.0,  7.5,  0.707106781186548,  1.70710678118655,  180.
*End Instance
**  
*Nset, nset=symm, instance=plate-1
   3,   4,   6,   7,  21,  22,  23,  24,  25,  26,  27,  28,  35,  47,  53,  54
  55,  56,  57,  63,  64,  65,  66,  67, 141, 142, 143, 144, 145, 146, 147, 148
 149, 150, 151, 152, 153, 154, 155, 156, 157, 158, 159, 160, 181, 182, 183, 184
 192, 193, 194, 195, 196, 203, 204, 205, 206, 207, 211, 212, 278, 279, 280, 281
 282, 374, 375, 376, 377, 378, 379, 380, 381, 382, 483, 484, 543, 544, 545, 546
 547,
*Nset, nset=symm, instance=plate-2
   3,   4,   6,   7,  21,  22,  23,  24,  25,  26,  27,  28,  35,  47,  53,  54
  55,  56,  57,  63,  64,  65,  66,  67, 141, 142, 143, 144, 145, 146, 147, 148
 149, 150, 151, 152, 153, 154, 155, 156, 157, 158, 159, 160, 181, 182, 183, 184
 192, 193, 194, 195, 196, 203, 204, 205, 206, 207, 211, 212, 278, 279, 280, 281
 282, 374, 375, 376, 377, 378, 379, 380, 381, 382, 483, 484, 543, 544, 545, 546
 547,
*Nset, nset=symm, instance=rivet-1
    2,    3,    5,    6,    9,   10,   12,   13,   14,   15,   16,   17,   19,   20,   21,   24
   25,   26,   27,   29,   30,   32,   34,   35,   38,   39,   40,   41,   42,   43,   44,   54
   74,   92,   93,   94,   95,   96,  103,  104,  105,  106,  116,  117,  118,  119,  120,  121
  146,  147,  148,  149,  150,  169,  181,  182,  183,  184,  213,  214,  215,  227,  237,  238
  239,  240,  241,  242,  249,  250,  262,  263,  270,  271,  272,  273,  306,  307,  308,  309
  310,  311,  312,  344,  345,  346,  347,  348,  358,  359,  360,  361,  362,  368,  369,  370
  371,  372,  373,  374,  375,  376,  377,  378,  379,  380,  381,  382,  383,  384,  385,  386
  387,  388,  389,  399,  400,  401,  402,  403,  422,  423,  424,  425,  426,  427,  428,  429
  487,  488,  489,  490,  521,  522,  523,  524,  610,  611,  639,  668,  723,  724,  725,  726
  727,  728,  729,  730,  842,  843,  844,  845,  846,  847,  893,  894,  895,  896,  897,  898
  899,  900,  901,  902,  903,  904,  905,  906,  907,  908,  909,  910,  911,  912, 1012, 1013
 1014, 1015, 1040, 1041, 1042, 1043, 1113, 1114, 1115, 1116, 1117, 1118, 1119, 1120, 1121, 1122
 1123, 1124, 1125, 1126, 1127, 1128, 1129, 1130, 1131, 1132, 1178, 1179, 1180, 1181, 1182, 1183
 1220, 1221, 1222, 1223, 1224, 1225, 1226, 1227
*Nset, nset=pull, instance=plate-1
  19,  20,  22,  23, 131, 151, 161, 162, 163, 164, 165, 171, 172, 173, 174, 175
 478, 479, 480, 481, 482
*Nset, nset=fix, instance=plate-2
  19,  20,  22,  23, 131, 151, 161, 162, 163, 164, 165, 171, 172, 173, 174, 175
 478, 479, 480, 481, 482
*Nset, nset=corner, instance=plate-2
 22,
**
*Elset, elset=bot-plate-1-S3, instance=plate-1
  73,  74,  75,  76,  77,  78,  85,  86,  87,  88,  89,  90,  97,  98,  99, 100
 101, 102, 109, 110, 111, 112, 113, 114
*Elset, elset=bot-plate-1-S4, instance=plate-1, generate
  2,  72,   2
*Elset, elset=bot-plate-1-S2, instance=plate-1
 121, 122, 123, 124, 125, 126, 127, 128, 129, 130, 131, 132, 133, 134, 135, 136
 137, 138, 139, 140, 141, 142, 143, 144, 325, 326, 327, 328, 329, 330, 331, 332
 333, 334, 335, 336, 337, 338, 339, 340, 341, 342, 343, 344, 345, 346, 347, 348
*Elset, elset=bot-plate-1-S6, instance=plate-1, generate
 169,  323,    2
*Surface, type=ELEMENT, name=bot-plate-1
bot-plate-1-S3, S3
bot-plate-1-S4, S4
bot-plate-1-S2, S2
bot-plate-1-S6, S6
**
*Elset, elset=top-plate-2-S3, instance=plate-2
  73,  74,  75,  76,  77,  78,  85,  86,  87,  88,  89,  90,  97,  98,  99, 100
 101, 102, 109, 110, 111, 112, 113, 114
*Elset, elset=top-plate-2-S4, instance=plate-2, generate
  2,  72,   2
*Elset, elset=top-plate-2-S2, instance=plate-2
 121, 122, 123, 124, 125, 126, 127, 128, 129, 130, 131, 132, 133, 134, 135, 136
 137, 138, 139, 140, 141, 142, 143, 144, 325, 326, 327, 328, 329, 330, 331, 332
 333, 334, 335, 336, 337, 338, 339, 340, 341, 342, 343, 344, 345, 346, 347, 348
*Elset, elset=top-plate-2-S6, instance=plate-2, generate
 169,  323,    2
*Surface, type=ELEMENT, name=top-plate-2
top-plate-2-S3, S3
top-plate-2-S4, S4
top-plate-2-S2, S2
top-plate-2-S6, S6
**
*Elset, elset=shank-rivet-S4, instance=rivet-1
  653,  654,  655,  656,  657,  658,  659,  660,  661,  662,  663,  664,  665,  666,  667,  668
  669,  670,  909,  910,  911,  912,  913,  914,  915,  916,  917,  918,  919,  920, 1011, 1012
 1013, 1014, 1015, 1016, 1017, 1018, 1019, 1020, 1021, 1022
*Elset, elset=shank-rivet-S3, instance=rivet-1
  641,  642,  643,  644,  645,  646,  647,  648,  649,  650,  651,  652,  671,  672,  673,  674
  675,  676,  677,  678,  679,  680,  681,  682,  993,  994,  995,  996,  997,  998,  999, 1000
 1001, 1002, 1003, 1004, 1005, 1006, 1007, 1008, 1009, 1010
*Elset, elset=shank-rivet-S2, instance=rivet-1
  755,  756,  757,  758,  759,  760,  761,  762,  763,  764,  765,  766,  767,  768,  769,  770
  771,  772, 1095, 1096, 1097, 1098, 1099, 1100, 1101, 1102, 1103, 1104, 1105, 1106, 1107, 1108
 1109, 1110, 1111, 1112
*Surface, type=ELEMENT, name=shank-rivet
shank-rivet-S4, S4
shank-rivet-S3, S3
shank-rivet-S2, S2
**
*Elset, elset=hole-plate-1-S2, instance=plate-1, generate
  1,  12,   1
*Elset, elset=hole-plate-1-S4, instance=plate-1
 126, 132, 138, 144, 150, 156, 162, 168, 330, 336, 342, 348, 354, 360, 366, 372
*Elset, elset=hole-plate-1-S6, instance=plate-1, generate
  73,  115,    6
*Surface, type=ELEMENT, name=hole-plate-1
hole-plate-1-S2, S2
hole-plate-1-S4, S4
hole-plate-1-S6, S6
**
*Elset, elset=top-rivet-S2, instance=rivet-1
  237,  238,  239,  240,  241,  242,  243,  244,  245,  246,  247,  248,  249,  250,  251,  252
  253,  254,  255,  256,  277,  278,  279,  280,  281,  282,  283,  284,  285,  286,  287,  288
  289,  290,  291,  292,  293,  294,  295,  296, 1113, 1114, 1115, 1116, 1117, 1118, 1119, 1120
 1121, 1122
*Elset, elset=top-rivet-S5, instance=rivet-1, generate
 559,  568,    1
*Surface, type=ELEMENT, name=top-rivet
top-rivet-S2, S2
top-rivet-S5, S5
**
*Elset, elset=top-plate-1-S5, instance=plate-1
  79,  80,  81,  82,  83,  84,  91,  92,  93,  94,  95,  96, 103, 104, 105, 106
 107, 108, 115, 116, 117, 118, 119, 120
*Elset, elset=top-plate-1-S1, instance=plate-1
 145, 146, 147, 148, 149, 150, 151, 152, 153, 154, 155, 156, 157, 158, 159, 160
 161, 162, 163, 164, 165, 166, 167, 168, 349, 350, 351, 352, 353, 354, 355, 356
 357, 358, 359, 360, 361, 362, 363, 364, 365, 366, 367, 368, 369, 370, 371, 372
*Elset, elset=top-plate-1-S4, instance=plate-1, generate
 170,  324,    2
*Elset, elset=top-plate-1-S6, instance=plate-1, generate
  1,  71,   2
*Surface, type=ELEMENT, name=top-plate-1
top-plate-1-S5, S5
top-plate-1-S1, S1
top-plate-1-S4, S4
top-plate-1-S6, S6
**
*Elset, elset=hole-plate-2-S2, instance=plate-2, generate
  1,  12,   1
*Elset, elset=hole-plate-2-S4, instance=plate-2
 126, 132, 138, 144, 150, 156, 162, 168, 330, 336, 342, 348, 354, 360, 366, 372
*Elset, elset=hole-plate-2-S6, instance=plate-2, generate
  73,  115,    6
*Surface, type=ELEMENT, name=hole-plate-2
hole-plate-2-S2, S2
hole-plate-2-S4, S4
hole-plate-2-S6, S6
**
*Elset, elset=bot-rivet-S2, instance=rivet-1
  419,  420,  421,  422,  423,  424,  425,  426,  427,  428,  429,  430,  431,  432,  433,  449
  450,  451,  452,  453,  459,  460,  461,  462,  463,  469,  470,  471,  472,  473,  474,  475
  476,  477,  478,  479,  480,  481,  482,  483, 1133, 1134, 1135, 1136, 1137, 1143, 1144, 1145
 1146, 1147, 1148, 1149, 1150, 1151, 1152, 1153, 1154, 1155, 1156, 1157, 1173, 1174, 1175, 1176
 1177, 1178, 1179, 1180, 1181, 1182, 1183, 1184, 1185, 1186, 1187, 1203, 1204, 1205, 1206, 1207
*Surface, type=ELEMENT, name=bot-rivet
bot-rivet-S2, S2
**
*Elset, elset=bot-plate-2-S5, instance=plate-2
  79,  80,  81,  82,  83,  84,  91,  92,  93,  94,  95,  96, 103, 104, 105, 106
 107, 108, 115, 116, 117, 118, 119, 120
*Elset, elset=bot-plate-2-S1, instance=plate-2
 145, 146, 147, 148, 149, 150, 151, 152, 153, 154, 155, 156, 157, 158, 159, 160
 161, 162, 163, 164, 165, 166, 167, 168, 349, 350, 351, 352, 353, 354, 355, 356
 357, 358, 359, 360, 361, 362, 363, 364, 365, 366, 367, 368, 369, 370, 371, 372
*Elset, elset=bot-plate-2-S4, instance=plate-2, generate
 170,  324,    2
*Elset, elset=bot-plate-2-S6, instance=plate-2, generate
  1,  71,   2
*Surface, type=ELEMENT, name=bot-plate-2
bot-plate-2-S5, S5
bot-plate-2-S1, S1
bot-plate-2-S4, S4
bot-plate-2-S6, S6
**
*End Assembly
** 
** MATERIALS
** 
*Material, name=aluminum
*Density
 0.0028,
*Elastic
71700., 0.33
*Plastic
   350.,    0.
 368.71, 0.001
  376.5, 0.002
 391.98, 0.005
 403.15, 0.008
 412.36, 0.011
 422.87, 0.015
 444.17, 0.025
  461.5, 0.035
  507.9,  0.07
  581.5,  0.15
 649.17,  0.25
 704.22,  0.35
 728.78,   0.4
 751.85,  0.45
 773.68,   0.5
 794.44,  0.55
 814.28,   0.6
*Material, name=titanium
*Density
 0.0044,
*Elastic
112000., 0.34
*Plastic
   907.,    0.
 934.86, 0.001
 944.28, 0.002
 961.77, 0.005
 973.73, 0.008
 983.28, 0.011
 993.89, 0.015
 1014.7, 0.025
 1023.3,  0.03
 1051.1,  0.05
 1099.8,   0.1
  1129.,  0.14
 1164.9,   0.2
 1190.2,  0.25
 1212.8,   0.3
** 
** INTERACTION PROPERTIES
** 
** INTERACTIONS
** 
** ----------------------------------------------------------------
** 
** STEP: Step-1
** 
** BOUNDARY CONDITIONS
**  
** OUTPUT REQUESTS
**
*End Step
