1

   Abaqus 2023.HF4                                  Date 01-Jul-2024   Time 13:59:45
   For use by AALTO UNIVERSITY under license from Dassault Systemes or its subsidiary.

                                                                                 
                                                                                 
 STEP    1     INCREMENT     1     STEP TIME    0.00    


                        S T E P       1     C O U P L E D - T E M P E R A T U R E - D I S P L A C E M E N T   A N A L Y S I S


                                                                                          

     AUTOMATIC TIME CONTROL WITH -
          A SUGGESTED INITIAL TIME INCREMENT OF                 10.0    
          AND A TOTAL TIME PERIOD OF                           1.000E+03
          THE MINIMUM TIME INCREMENT ALLOWED IS                1.000E-02
          THE MAXIMUM TIME INCREMENT ALLOWED IS                 10.0    

          CREEP AND SWELLING EFFECTS ARE OMITTED IN THIS STEP

     THE SIZE OF THE TIME INCREMENT IS CONTROLLED BY -
          THE TEMPERATURE CHANGE PER INCREMENT NOT EXCEEDING            1.00    
          THE RATE DEPENDENCY WILL BE CONSIDERED IN THIS STEP

          CREEP AND SWELLING EFFECTS WILL BE IGNORED.

 CONVERGENCE TOLERANCE PARAMETERS FOR FORCE    
     CRITERION FOR RESIDUAL FORCE     FOR A NONLINEAR PROBLEM          5.000E-03
     CRITERION FOR DISP.    CORRECTION IN A NONLINEAR PROBLEM          1.000E-02
     INITIAL VALUE OF TIME AVERAGE FORCE                               1.000E-02
     AVERAGE FORCE     IS TIME AVERAGE FORCE    
     ALTERNATE CRIT. FOR RESIDUAL FORCE     FOR A NONLINEAR PROBLEM    2.000E-02
     CRITERION FOR ZERO FORCE     RELATIVE TO TIME AVRG. FORCE         1.000E-05
     CRITERION FOR RESIDUAL FORCE     WHEN THERE IS ZERO FLUX          1.000E-05
     CRITERION FOR DISP.    CORRECTION WHEN THERE IS ZERO FLUX         1.000E-03
     CRITERION FOR RESIDUAL FORCE     FOR A LINEAR INCREMENT           1.000E-08
     FIELD CONVERSION RATIO                                             1.00    
     CRITERION FOR ZERO FORCE     REL. TO TIME AVRG. MAX. FORCE        1.000E-05
     CRITERION FOR ZERO DISP.    RELATIVE TO CHARACTERISTIC LENGTH     1.000E-08

 CONVERGENCE TOLERANCE PARAMETERS FOR HEAT FLUX
     CRITERION FOR RESIDUAL HEAT FLUX FOR A NONLINEAR PROBLEM          5.000E-03
     CRITERION FOR TEMP.    CORRECTION IN A NONLINEAR PROBLEM          1.000E-02
     INITIAL VALUE OF TIME AVERAGE HEAT FLUX                           1.000E-02
     AVERAGE HEAT FLUX IS TIME AVERAGE HEAT FLUX
     ALTERNATE CRIT. FOR RESIDUAL HEAT FLUX FOR A NONLINEAR PROBLEM    2.000E-02
     CRITERION FOR ZERO HEAT FLUX RELATIVE TO TIME AVRG. HEAT FLUX     1.000E-05
     CRITERION FOR RESIDUAL HEAT FLUX WHEN THERE IS ZERO FLUX          1.000E-05
     CRITERION FOR TEMP.    CORRECTION WHEN THERE IS ZERO FLUX         1.000E-03
     CRITERION FOR RESIDUAL HEAT FLUX FOR A LINEAR INCREMENT           1.000E-08
     FIELD CONVERSION RATIO                                             1.00    
     CRITERION FOR ZERO HEAT FLUX REL. TO TIME AVRG. MAX. HEAT FLUX    1.000E-05

     VOLUMETRIC STRAIN COMPATIBILITY TOLERANCE FOR HYBRID SOLIDS       1.000E-05
     AXIAL STRAIN COMPATIBILITY TOLERANCE FOR HYBRID BEAMS             1.000E-05
     TRANS. SHEAR STRAIN COMPATIBILITY TOLERANCE FOR HYBRID BEAMS      1.000E-05
     SOFT CONTACT CONSTRAINT COMPATIBILITY TOLERANCE FOR P>P0          5.000E-03
     SOFT CONTACT CONSTRAINT COMPATIBILITY TOLERANCE FOR P=0.0         0.100    
     CONTACT FORCE ERROR TOLERANCE FOR CONVERT SDI=YES                 1.00    
     DISPLACEMENT COMPATIBILITY TOLERANCE FOR DCOUP ELEMENTS           1.000E-05
     ROTATION COMPATIBILITY TOLERANCE FOR DCOUP ELEMENTS               1.000E-05

 EQUILIBRIUM WILL BE CHECKED FOR SEVERE DISCONTINUITY ITERATIONS

 TIME INCREMENTATION CONTROL PARAMETERS:
     FIRST EQUILIBRIUM ITERATION FOR CONSECUTIVE DIVERGENCE CHECK              4
     EQUILIBRIUM ITERATION AT WHICH LOG. CONVERGENCE RATE CHECK BEGINS         8
     EQUILIBRIUM ITERATION AFTER WHICH ALTERNATE RESIDUAL IS USED              9
     MAXIMUM EQUILIBRIUM ITERATIONS ALLOWED                                   16
     EQUILIBRIUM ITERATION COUNT FOR CUT-BACK IN NEXT INCREMENT               10
     MAXIMUM EQUILIB. ITERS IN TWO INCREMENTS FOR TIME INCREMENT INCREASE      4
     MAXIMUM ITERATIONS FOR SEVERE DISCONTINUITIES                            50
     MAXIMUM ATTEMPTS ALLOWED IN AN INCREMENT                                  5
     MAXIMUM DISCON. ITERS IN TWO INCREMENTS FOR TIME INCREMENT INCREASE      50
     MAXIMUM CONTACT AUGMENTATIONS FOR *SURFACE BEHAVIOR,AUGMENTED LAGRANGE   50
     CONSECUTIVE INCS MEETING TIME INTEG. TOL. FOR TIME INC. INCREASE          3
     CUT-BACK FACTOR AFTER DIVERGENCE                                 0.2500    
     CUT-BACK FACTOR FOR TOO SLOW CONVERGENCE                         0.5000    
     CUT-BACK FACTOR AFTER TOO MANY EQUILIBRIUM ITERATIONS            0.7500    
     CUT-BACK FACTOR AFTER TOO MANY SEVERE DISCONTINUITY ITERATIONS   0.2500    
     CUT-BACK FACTOR AFTER PROBLEMS IN ELEMENT ASSEMBLY               0.2500    
     INCREASE FACTOR AFTER TWO INCREMENTS THAT CONVERGE QUICKLY        1.500    
     MAX. TIME INCREMENT INCREASE FACTOR ALLOWED                       1.500    
     MAX. TIME INCREMENT INCREASE FACTOR ALLOWED (DYNAMICS)            1.250    
     MAX. TIME INCREMENT INCREASE FACTOR ALLOWED (DIFFUSION)           2.000    
     MINIMUM TIME INCREMENT RATIO FOR EXTRAPOLATION TO OCCUR          0.1000    
     CUT-BACK FACTOR WHEN TIME INTEGRATION ACCURACY TOL. EXCEEDED     0.8500    
     MAX. RATIO OF TIME INTEG. MEASURE TO TOL. FOR TIME INC. INCREASE 0.7500    
     INCREASE FACTOR FOR TIME INCREMENT WHEN POSSIBLE                 0.8000    
     MIN. TIME INC. INCREASE FACTOR IN LINEAR TRANSIENT PROBLEMS      0.9500    
     MAX. RATIO OF TIME INCREMENT TO STABILITY LIMIT                   1.000    
     FRACTION OF STABILITY LIMIT FOR NEW TIME INCREMENT               0.9500    
     TIME INCREMENT INCREASE FACTOR BEFORE A TIME POINT                1.000    
     GLOBAL STABILIZATION CONTROL IS NOT USED

          PRINT OF INCREMENT NUMBER, TIME, ETC., EVERY    1  INCREMENTS

     THE MAXIMUM NUMBER OF INCREMENTS IN THIS STEP IS                  100000

          LARGE DISPLACEMENT THEORY WILL BE USED

          UNSYMMETRIC MATRIX STORAGE AND SOLUTION WILL BE USED

     LINEAR EXTRAPOLATION WILL BE USED

     CHARACTERISTIC ELEMENT LENGTH     2.381E-04

     DETAILS REGARDING ACTUAL SOLUTION WAVEFRONT REQUESTED

     DETAILED OUTPUT OF DIAGNOSTICS TO DATABASE REQUESTED

     PRINT OF INCREMENT NUMBER, TIME, ETC., TO THE MESSAGE FILE EVERY     1  INCREMENTS

     COLLECTING MODEL CONSTRAINT INFORMATION FOR OVERCONSTRAINT CHECKS

     COLLECTING STEP CONSTRAINT INFORMATION FOR OVERCONSTRAINT CHECKS


  INCREMENT     1 STARTS. ATTEMPT NUMBER  1, TIME INCREMENT   10.0    
 
	UNSYMMETRIC NEW DIRECT SPARSE SOLVER RUNNING ON
 	1 HOST x 1 MPI RANK PER HOST x 1 THREAD PER RANK
        NUMBER OF EQUATIONS:  194265
        NUMBER OF RHS:        1
        NUMBER OF FLOPS:      3.403e+11
        SOLVER ELAPSED TIME:  9.2s

               CONVERGENCE CHECKS FOR EQUILIBRIUM ITERATION     1


 AVERAGE FORCE                      9.326E-02   TIME AVG. FORCE       9.326E-02
 LARGEST SCALED RESIDUAL FORCE      1.412E-03   AT NODE       2363   DOF  3
   INSTANCE: NDBR6-M-1                                                                       
  CORRESPONDING RESIDUAL FORCE      1.412E-03
 LARGEST INCREMENT OF DISP.         1.500E-05   AT NODE         21   DOF  2
   INSTANCE: NDBR6-M-1                                                                       
 LARGEST CORRECTION TO DISP.        1.500E-05   AT NODE         21   DOF  2
   INSTANCE: NDBR6-M-1                                                                       
          FORCE     EQUILIBRIUM NOT ACHIEVED WITHIN TOLERANCE.

 AVERAGE HEAT FLUX                   0.00       TIME AVG. HEAT FLUX   1.000E-02
 ALL HEAT FLUX RESIDUALS ARE ZERO
 ALL TEMP.    INCREMENTS ARE ZERO
 ALL CORRECTION TO TEMP.    ARE ZERO
          THERE IS ZERO HEAT FLUX EVERYWHERE
 
	UNSYMMETRIC NEW DIRECT SPARSE SOLVER RUNNING ON
 	1 HOST x 1 MPI RANK PER HOST x 1 THREAD PER RANK
        NUMBER OF EQUATIONS:  194265
        NUMBER OF RHS:        1
        NUMBER OF FLOPS:      3.403e+11
        SOLVER ELAPSED TIME:  22s

               CONVERGENCE CHECKS FOR EQUILIBRIUM ITERATION     2


 AVERAGE FORCE                      9.326E-02   TIME AVG. FORCE       9.326E-02
 LARGEST SCALED RESIDUAL FORCE     -1.770E-08   AT NODE        504   DOF  2
   INSTANCE: NDBR6-M-1                                                                       
  CORRESPONDING RESIDUAL FORCE     -1.770E-08
 LARGEST INCREMENT OF DISP.         1.500E-05   AT NODE         21   DOF  2
   INSTANCE: NDBR6-M-1                                                                       
 LARGEST CORRECTION TO DISP.        6.825E-11   AT NODE        500   DOF  2
   INSTANCE: NDBR6-M-1                                                                       
          THE FORCE     EQUILIBRIUM EQUATIONS HAVE CONVERGED

 AVERAGE HEAT FLUX                   0.00       TIME AVG. HEAT FLUX   1.000E-02
 ALL HEAT FLUX RESIDUALS ARE ZERO
 ALL TEMP.    INCREMENTS ARE ZERO
 ALL CORRECTION TO TEMP.    ARE ZERO
          THERE IS ZERO HEAT FLUX EVERYWHERE

 MAXIMUM NON-PRESCRIBED INCREMENT IN TEMPERATURE IS    0.00    

 ITERATION SUMMARY FOR THE INCREMENT:   2 TOTAL ITERATIONS, OF WHICH
   0 ARE SEVERE DISCONTINUITY ITERATIONS AND  2 ARE EQUILIBRIUM ITERATIONS.

 TIME INCREMENT COMPLETED   10.0    ,  FRACTION OF STEP COMPLETED  1.000E-02
 STEP TIME COMPLETED        10.0    ,  TOTAL TIME COMPLETED         10.0    


  INCREMENT     2 STARTS. ATTEMPT NUMBER  1, TIME INCREMENT   10.0    
 
	UNSYMMETRIC NEW DIRECT SPARSE SOLVER RUNNING ON
 	1 HOST x 1 MPI RANK PER HOST x 1 THREAD PER RANK
        NUMBER OF EQUATIONS:  194265
        NUMBER OF RHS:        1
        NUMBER OF FLOPS:      3.403e+11
        SOLVER ELAPSED TIME:  19s

               CONVERGENCE CHECKS FOR EQUILIBRIUM ITERATION     1


 AVERAGE FORCE                      0.210       TIME AVG. FORCE       0.152    
 LARGEST SCALED RESIDUAL FORCE     -4.053E-08   AT NODE       2877   DOF  2
   INSTANCE: NDBR6-M-1                                                                       
  CORRESPONDING RESIDUAL FORCE     -4.053E-08
 LARGEST INCREMENT OF DISP.         1.500E-05   AT NODE         21   DOF  2
   INSTANCE: NDBR6-M-1                                                                       
 LARGEST CORRECTION TO DISP.        1.301E-10   AT NODE        500   DOF  2
   INSTANCE: NDBR6-M-1                                                                       
          THE FORCE     EQUILIBRIUM EQUATIONS HAVE CONVERGED

 AVERAGE HEAT FLUX                   0.00       TIME AVG. HEAT FLUX   1.000E-02
 ALL HEAT FLUX RESIDUALS ARE ZERO
 ALL TEMP.    INCREMENTS ARE ZERO
 ALL CORRECTION TO TEMP.    ARE ZERO
          THERE IS ZERO HEAT FLUX EVERYWHERE

 MAXIMUM NON-PRESCRIBED INCREMENT IN TEMPERATURE IS    0.00    

 ITERATION SUMMARY FOR THE INCREMENT:   1 TOTAL ITERATIONS, OF WHICH
   0 ARE SEVERE DISCONTINUITY ITERATIONS AND  1 ARE EQUILIBRIUM ITERATIONS.

 TIME INCREMENT COMPLETED   10.0    ,  FRACTION OF STEP COMPLETED  2.000E-02
 STEP TIME COMPLETED        20.0    ,  TOTAL TIME COMPLETED         20.0    


  INCREMENT     3 STARTS. ATTEMPT NUMBER  1, TIME INCREMENT   10.0    
 
	UNSYMMETRIC NEW DIRECT SPARSE SOLVER RUNNING ON
 	1 HOST x 1 MPI RANK PER HOST x 1 THREAD PER RANK
        NUMBER OF EQUATIONS:  194265
        NUMBER OF RHS:        1
        NUMBER OF FLOPS:      3.403e+11
        SOLVER ELAPSED TIME:  15s

               CONVERGENCE CHECKS FOR EQUILIBRIUM ITERATION     1


 AVERAGE FORCE                      0.315       TIME AVG. FORCE       0.206    
 LARGEST SCALED RESIDUAL FORCE     -7.216E-08   AT NODE       2875   DOF  2
   INSTANCE: NDBR6-M-1                                                                       
  CORRESPONDING RESIDUAL FORCE     -7.216E-08
 LARGEST INCREMENT OF DISP.         1.500E-05   AT NODE         21   DOF  2
   INSTANCE: NDBR6-M-1                                                                       
 LARGEST CORRECTION TO DISP.        1.301E-10   AT NODE        412   DOF  2
   INSTANCE: NDBR6-M-1                                                                       
          THE FORCE     EQUILIBRIUM EQUATIONS HAVE CONVERGED

 AVERAGE HEAT FLUX                   0.00       TIME AVG. HEAT FLUX   1.000E-02
 ALL HEAT FLUX RESIDUALS ARE ZERO
 ALL TEMP.    INCREMENTS ARE ZERO
 ALL CORRECTION TO TEMP.    ARE ZERO
          THERE IS ZERO HEAT FLUX EVERYWHERE

 MAXIMUM NON-PRESCRIBED INCREMENT IN TEMPERATURE IS    0.00    

 ITERATION SUMMARY FOR THE INCREMENT:   1 TOTAL ITERATIONS, OF WHICH
   0 ARE SEVERE DISCONTINUITY ITERATIONS AND  1 ARE EQUILIBRIUM ITERATIONS.

 TIME INCREMENT COMPLETED   10.0    ,  FRACTION OF STEP COMPLETED  3.000E-02
 STEP TIME COMPLETED        30.0    ,  TOTAL TIME COMPLETED         30.0    


  INCREMENT     4 STARTS. ATTEMPT NUMBER  1, TIME INCREMENT   10.0    
 
	UNSYMMETRIC NEW DIRECT SPARSE SOLVER RUNNING ON
 	1 HOST x 1 MPI RANK PER HOST x 1 THREAD PER RANK
        NUMBER OF EQUATIONS:  194265
        NUMBER OF RHS:        1
        NUMBER OF FLOPS:      3.403e+11
        SOLVER ELAPSED TIME:  18s

               CONVERGENCE CHECKS FOR EQUILIBRIUM ITERATION     1


 AVERAGE FORCE                      0.420       TIME AVG. FORCE       0.259    
 LARGEST SCALED RESIDUAL FORCE     -1.038E-07   AT NODE       2877   DOF  2
   INSTANCE: NDBR6-M-1                                                                       
  CORRESPONDING RESIDUAL FORCE     -1.038E-07
 LARGEST INCREMENT OF DISP.         1.500E-05   AT NODE         21   DOF  2
   INSTANCE: NDBR6-M-1                                                                       
 LARGEST CORRECTION TO DISP.        1.300E-10   AT NODE        500   DOF  2
   INSTANCE: NDBR6-M-1                                                                       
          THE FORCE     EQUILIBRIUM EQUATIONS HAVE CONVERGED

 AVERAGE HEAT FLUX                   0.00       TIME AVG. HEAT FLUX   1.000E-02
 ALL HEAT FLUX RESIDUALS ARE ZERO
 ALL TEMP.    INCREMENTS ARE ZERO
 ALL CORRECTION TO TEMP.    ARE ZERO
          THERE IS ZERO HEAT FLUX EVERYWHERE

 MAXIMUM NON-PRESCRIBED INCREMENT IN TEMPERATURE IS    0.00    

 ITERATION SUMMARY FOR THE INCREMENT:   1 TOTAL ITERATIONS, OF WHICH
   0 ARE SEVERE DISCONTINUITY ITERATIONS AND  1 ARE EQUILIBRIUM ITERATIONS.

 TIME INCREMENT COMPLETED   10.0    ,  FRACTION OF STEP COMPLETED  4.000E-02
 STEP TIME COMPLETED        40.0    ,  TOTAL TIME COMPLETED         40.0    


  INCREMENT     5 STARTS. ATTEMPT NUMBER  1, TIME INCREMENT   10.0    
 
	UNSYMMETRIC NEW DIRECT SPARSE SOLVER RUNNING ON
 	1 HOST x 1 MPI RANK PER HOST x 1 THREAD PER RANK
        NUMBER OF EQUATIONS:  194265
        NUMBER OF RHS:        1
        NUMBER OF FLOPS:      3.403e+11
        SOLVER ELAPSED TIME:  17s

               CONVERGENCE CHECKS FOR EQUILIBRIUM ITERATION     1


 AVERAGE FORCE                      0.524       TIME AVG. FORCE       0.312    
 LARGEST SCALED RESIDUAL FORCE     -1.354E-07   AT NODE       2875   DOF  2
   INSTANCE: NDBR6-M-1                                                                       
  CORRESPONDING RESIDUAL FORCE     -1.354E-07
 LARGEST INCREMENT OF DISP.         1.500E-05   AT NODE         21   DOF  2
   INSTANCE: NDBR6-M-1                                                                       
 LARGEST CORRECTION TO DISP.        1.300E-10   AT NODE        412   DOF  2
   INSTANCE: NDBR6-M-1                                                                       
          THE FORCE     EQUILIBRIUM EQUATIONS HAVE CONVERGED

 AVERAGE HEAT FLUX                   0.00       TIME AVG. HEAT FLUX   1.000E-02
 ALL HEAT FLUX RESIDUALS ARE ZERO
 ALL TEMP.    INCREMENTS ARE ZERO
 ALL CORRECTION TO TEMP.    ARE ZERO
          THERE IS ZERO HEAT FLUX EVERYWHERE

 MAXIMUM NON-PRESCRIBED INCREMENT IN TEMPERATURE IS    0.00    

 ITERATION SUMMARY FOR THE INCREMENT:   1 TOTAL ITERATIONS, OF WHICH
   0 ARE SEVERE DISCONTINUITY ITERATIONS AND  1 ARE EQUILIBRIUM ITERATIONS.

 TIME INCREMENT COMPLETED   10.0    ,  FRACTION OF STEP COMPLETED  5.000E-02
 STEP TIME COMPLETED        50.0    ,  TOTAL TIME COMPLETED         50.0    


  INCREMENT     6 STARTS. ATTEMPT NUMBER  1, TIME INCREMENT   10.0    
 
	UNSYMMETRIC NEW DIRECT SPARSE SOLVER RUNNING ON
 	1 HOST x 1 MPI RANK PER HOST x 1 THREAD PER RANK
        NUMBER OF EQUATIONS:  194265
        NUMBER OF RHS:        1
        NUMBER OF FLOPS:      3.403e+11
        SOLVER ELAPSED TIME:  18s

               CONVERGENCE CHECKS FOR EQUILIBRIUM ITERATION     1


 AVERAGE FORCE                      0.629       TIME AVG. FORCE       0.365    
 LARGEST SCALED RESIDUAL FORCE     -1.669E-07   AT NODE       2877   DOF  2
   INSTANCE: NDBR6-M-1                                                                       
  CORRESPONDING RESIDUAL FORCE     -1.669E-07
 LARGEST INCREMENT OF DISP.         1.500E-05   AT NODE         21   DOF  2
   INSTANCE: NDBR6-M-1                                                                       
 LARGEST CORRECTION TO DISP.        1.300E-10   AT NODE        500   DOF  2
   INSTANCE: NDBR6-M-1                                                                       
          THE FORCE     EQUILIBRIUM EQUATIONS HAVE CONVERGED

 AVERAGE HEAT FLUX                   0.00       TIME AVG. HEAT FLUX   1.000E-02
 ALL HEAT FLUX RESIDUALS ARE ZERO
 ALL TEMP.    INCREMENTS ARE ZERO
 ALL CORRECTION TO TEMP.    ARE ZERO
          THERE IS ZERO HEAT FLUX EVERYWHERE

 MAXIMUM NON-PRESCRIBED INCREMENT IN TEMPERATURE IS    0.00    

 ITERATION SUMMARY FOR THE INCREMENT:   1 TOTAL ITERATIONS, OF WHICH
   0 ARE SEVERE DISCONTINUITY ITERATIONS AND  1 ARE EQUILIBRIUM ITERATIONS.

 TIME INCREMENT COMPLETED   10.0    ,  FRACTION OF STEP COMPLETED  6.000E-02
 STEP TIME COMPLETED        60.0    ,  TOTAL TIME COMPLETED         60.0    


  INCREMENT     7 STARTS. ATTEMPT NUMBER  1, TIME INCREMENT   10.0    
 
	UNSYMMETRIC NEW DIRECT SPARSE SOLVER RUNNING ON
 	1 HOST x 1 MPI RANK PER HOST x 1 THREAD PER RANK
        NUMBER OF EQUATIONS:  194265
        NUMBER OF RHS:        1
        NUMBER OF FLOPS:      3.403e+11
        SOLVER ELAPSED TIME:  7.3s

               CONVERGENCE CHECKS FOR EQUILIBRIUM ITERATION     1


 AVERAGE FORCE                      0.734       TIME AVG. FORCE       0.418    
 LARGEST SCALED RESIDUAL FORCE     -1.985E-07   AT NODE       2877   DOF  2
   INSTANCE: NDBR6-M-1                                                                       
  CORRESPONDING RESIDUAL FORCE     -1.985E-07
 LARGEST INCREMENT OF DISP.         1.500E-05   AT NODE         21   DOF  2
   INSTANCE: NDBR6-M-1                                                                       
 LARGEST CORRECTION TO DISP.        1.300E-10   AT NODE        412   DOF  2
   INSTANCE: NDBR6-M-1                                                                       
          THE FORCE     EQUILIBRIUM EQUATIONS HAVE CONVERGED

 AVERAGE HEAT FLUX                   0.00       TIME AVG. HEAT FLUX   1.000E-02
 ALL HEAT FLUX RESIDUALS ARE ZERO
 ALL TEMP.    INCREMENTS ARE ZERO
 ALL CORRECTION TO TEMP.    ARE ZERO
          THERE IS ZERO HEAT FLUX EVERYWHERE

 MAXIMUM NON-PRESCRIBED INCREMENT IN TEMPERATURE IS    0.00    

 ITERATION SUMMARY FOR THE INCREMENT:   1 TOTAL ITERATIONS, OF WHICH
   0 ARE SEVERE DISCONTINUITY ITERATIONS AND  1 ARE EQUILIBRIUM ITERATIONS.

 TIME INCREMENT COMPLETED   10.0    ,  FRACTION OF STEP COMPLETED  7.000E-02
 STEP TIME COMPLETED        70.0    ,  TOTAL TIME COMPLETED         70.0    


  INCREMENT     8 STARTS. ATTEMPT NUMBER  1, TIME INCREMENT   10.0    
 
	UNSYMMETRIC NEW DIRECT SPARSE SOLVER RUNNING ON
 	1 HOST x 1 MPI RANK PER HOST x 1 THREAD PER RANK
        NUMBER OF EQUATIONS:  194265
        NUMBER OF RHS:        1
        NUMBER OF FLOPS:      3.403e+11
        SOLVER ELAPSED TIME:  12s

               CONVERGENCE CHECKS FOR EQUILIBRIUM ITERATION     1


 AVERAGE FORCE                      0.839       TIME AVG. FORCE       0.471    
 LARGEST SCALED RESIDUAL FORCE     -2.301E-07   AT NODE       2875   DOF  2
   INSTANCE: NDBR6-M-1                                                                       
  CORRESPONDING RESIDUAL FORCE     -2.301E-07
 LARGEST INCREMENT OF DISP.         1.500E-05   AT NODE         21   DOF  2
   INSTANCE: NDBR6-M-1                                                                       
 LARGEST CORRECTION TO DISP.        1.300E-10   AT NODE        500   DOF  2
   INSTANCE: NDBR6-M-1                                                                       
          THE FORCE     EQUILIBRIUM EQUATIONS HAVE CONVERGED

 AVERAGE HEAT FLUX                   0.00       TIME AVG. HEAT FLUX   1.000E-02
 ALL HEAT FLUX RESIDUALS ARE ZERO
 ALL TEMP.    INCREMENTS ARE ZERO
 ALL CORRECTION TO TEMP.    ARE ZERO
          THERE IS ZERO HEAT FLUX EVERYWHERE

 MAXIMUM NON-PRESCRIBED INCREMENT IN TEMPERATURE IS    0.00    

 ITERATION SUMMARY FOR THE INCREMENT:   1 TOTAL ITERATIONS, OF WHICH
   0 ARE SEVERE DISCONTINUITY ITERATIONS AND  1 ARE EQUILIBRIUM ITERATIONS.

 TIME INCREMENT COMPLETED   10.0    ,  FRACTION OF STEP COMPLETED  8.000E-02
 STEP TIME COMPLETED        80.0    ,  TOTAL TIME COMPLETED         80.0    


  INCREMENT     9 STARTS. ATTEMPT NUMBER  1, TIME INCREMENT   10.0    
 
	UNSYMMETRIC NEW DIRECT SPARSE SOLVER RUNNING ON
 	1 HOST x 1 MPI RANK PER HOST x 1 THREAD PER RANK
        NUMBER OF EQUATIONS:  194265
        NUMBER OF RHS:        1
        NUMBER OF FLOPS:      3.403e+11
        SOLVER ELAPSED TIME:  19s

               CONVERGENCE CHECKS FOR EQUILIBRIUM ITERATION     1


 AVERAGE FORCE                      0.944       TIME AVG. FORCE       0.523    
 LARGEST SCALED RESIDUAL FORCE     -2.616E-07   AT NODE       2875   DOF  2
   INSTANCE: NDBR6-M-1                                                                       
  CORRESPONDING RESIDUAL FORCE     -2.616E-07
 LARGEST INCREMENT OF DISP.         1.500E-05   AT NODE         21   DOF  2
   INSTANCE: NDBR6-M-1                                                                       
 LARGEST CORRECTION TO DISP.        1.300E-10   AT NODE        412   DOF  2
   INSTANCE: NDBR6-M-1                                                                       
          THE FORCE     EQUILIBRIUM EQUATIONS HAVE CONVERGED

 AVERAGE HEAT FLUX                   0.00       TIME AVG. HEAT FLUX   1.000E-02
 ALL HEAT FLUX RESIDUALS ARE ZERO
 ALL TEMP.    INCREMENTS ARE ZERO
 ALL CORRECTION TO TEMP.    ARE ZERO
          THERE IS ZERO HEAT FLUX EVERYWHERE

 MAXIMUM NON-PRESCRIBED INCREMENT IN TEMPERATURE IS    0.00    

 ITERATION SUMMARY FOR THE INCREMENT:   1 TOTAL ITERATIONS, OF WHICH
   0 ARE SEVERE DISCONTINUITY ITERATIONS AND  1 ARE EQUILIBRIUM ITERATIONS.

 TIME INCREMENT COMPLETED   10.0    ,  FRACTION OF STEP COMPLETED  9.000E-02
 STEP TIME COMPLETED        90.0    ,  TOTAL TIME COMPLETED         90.0    


  INCREMENT    10 STARTS. ATTEMPT NUMBER  1, TIME INCREMENT   10.0    
 
	UNSYMMETRIC NEW DIRECT SPARSE SOLVER RUNNING ON
 	1 HOST x 1 MPI RANK PER HOST x 1 THREAD PER RANK
        NUMBER OF EQUATIONS:  194265
        NUMBER OF RHS:        1
        NUMBER OF FLOPS:      3.403e+11
        SOLVER ELAPSED TIME:  19s

               CONVERGENCE CHECKS FOR EQUILIBRIUM ITERATION     1


 AVERAGE FORCE                       1.05       TIME AVG. FORCE       0.576    
 LARGEST SCALED RESIDUAL FORCE     -2.931E-07   AT NODE       2877   DOF  2
   INSTANCE: NDBR6-M-1                                                                       
  CORRESPONDING RESIDUAL FORCE     -2.931E-07
 LARGEST INCREMENT OF DISP.         1.500E-05   AT NODE         21   DOF  2
   INSTANCE: NDBR6-M-1                                                                       
 LARGEST CORRECTION TO DISP.        1.300E-10   AT NODE        500   DOF  2
   INSTANCE: NDBR6-M-1                                                                       
          THE FORCE     EQUILIBRIUM EQUATIONS HAVE CONVERGED

 AVERAGE HEAT FLUX                   0.00       TIME AVG. HEAT FLUX   1.000E-02
 ALL HEAT FLUX RESIDUALS ARE ZERO
 ALL TEMP.    INCREMENTS ARE ZERO
 ALL CORRECTION TO TEMP.    ARE ZERO
          THERE IS ZERO HEAT FLUX EVERYWHERE

 MAXIMUM NON-PRESCRIBED INCREMENT IN TEMPERATURE IS    0.00    

 ITERATION SUMMARY FOR THE INCREMENT:   1 TOTAL ITERATIONS, OF WHICH
   0 ARE SEVERE DISCONTINUITY ITERATIONS AND  1 ARE EQUILIBRIUM ITERATIONS.

 TIME INCREMENT COMPLETED   10.0    ,  FRACTION OF STEP COMPLETED  0.100    
 STEP TIME COMPLETED        100.    ,  TOTAL TIME COMPLETED         100.    


  INCREMENT    11 STARTS. ATTEMPT NUMBER  1, TIME INCREMENT   10.0    
 
	UNSYMMETRIC NEW DIRECT SPARSE SOLVER RUNNING ON
 	1 HOST x 1 MPI RANK PER HOST x 1 THREAD PER RANK
        NUMBER OF EQUATIONS:  194265
        NUMBER OF RHS:        1
        NUMBER OF FLOPS:      3.403e+11
        SOLVER ELAPSED TIME:  19s

               CONVERGENCE CHECKS FOR EQUILIBRIUM ITERATION     1


 AVERAGE FORCE                       1.15       TIME AVG. FORCE       0.628    
 LARGEST SCALED RESIDUAL FORCE     -3.246E-07   AT NODE       2875   DOF  2
   INSTANCE: NDBR6-M-1                                                                       
  CORRESPONDING RESIDUAL FORCE     -3.246E-07
 LARGEST INCREMENT OF DISP.         1.500E-05   AT NODE         21   DOF  2
   INSTANCE: NDBR6-M-1                                                                       
 LARGEST CORRECTION TO DISP.        1.299E-10   AT NODE        412   DOF  2
   INSTANCE: NDBR6-M-1                                                                       
          THE FORCE     EQUILIBRIUM EQUATIONS HAVE CONVERGED

 AVERAGE HEAT FLUX                   0.00       TIME AVG. HEAT FLUX   1.000E-02
 ALL HEAT FLUX RESIDUALS ARE ZERO
 ALL TEMP.    INCREMENTS ARE ZERO
 ALL CORRECTION TO TEMP.    ARE ZERO
          THERE IS ZERO HEAT FLUX EVERYWHERE

 MAXIMUM NON-PRESCRIBED INCREMENT IN TEMPERATURE IS    0.00    

 ITERATION SUMMARY FOR THE INCREMENT:   1 TOTAL ITERATIONS, OF WHICH
   0 ARE SEVERE DISCONTINUITY ITERATIONS AND  1 ARE EQUILIBRIUM ITERATIONS.

 TIME INCREMENT COMPLETED   10.0    ,  FRACTION OF STEP COMPLETED  0.110    
 STEP TIME COMPLETED        110.    ,  TOTAL TIME COMPLETED         110.    


  INCREMENT    12 STARTS. ATTEMPT NUMBER  1, TIME INCREMENT   10.0    
 
	UNSYMMETRIC NEW DIRECT SPARSE SOLVER RUNNING ON
 	1 HOST x 1 MPI RANK PER HOST x 1 THREAD PER RANK
        NUMBER OF EQUATIONS:  194265
        NUMBER OF RHS:        1
        NUMBER OF FLOPS:      3.403e+11
        SOLVER ELAPSED TIME:  19s

               CONVERGENCE CHECKS FOR EQUILIBRIUM ITERATION     1


 AVERAGE FORCE                       1.26       TIME AVG. FORCE       0.681    
 LARGEST SCALED RESIDUAL FORCE     -3.561E-07   AT NODE       2875   DOF  2
   INSTANCE: NDBR6-M-1                                                                       
  CORRESPONDING RESIDUAL FORCE     -3.561E-07
 LARGEST INCREMENT OF DISP.         1.500E-05   AT NODE         21   DOF  2
   INSTANCE: NDBR6-M-1                                                                       
 LARGEST CORRECTION TO DISP.        1.299E-10   AT NODE        412   DOF  2
   INSTANCE: NDBR6-M-1                                                                       
          THE FORCE     EQUILIBRIUM EQUATIONS HAVE CONVERGED

 AVERAGE HEAT FLUX                   0.00       TIME AVG. HEAT FLUX   1.000E-02
 ALL HEAT FLUX RESIDUALS ARE ZERO
 ALL TEMP.    INCREMENTS ARE ZERO
 ALL CORRECTION TO TEMP.    ARE ZERO
          THERE IS ZERO HEAT FLUX EVERYWHERE

 MAXIMUM NON-PRESCRIBED INCREMENT IN TEMPERATURE IS    0.00    

 ITERATION SUMMARY FOR THE INCREMENT:   1 TOTAL ITERATIONS, OF WHICH
   0 ARE SEVERE DISCONTINUITY ITERATIONS AND  1 ARE EQUILIBRIUM ITERATIONS.

 TIME INCREMENT COMPLETED   10.0    ,  FRACTION OF STEP COMPLETED  0.120    
 STEP TIME COMPLETED        120.    ,  TOTAL TIME COMPLETED         120.    


  INCREMENT    13 STARTS. ATTEMPT NUMBER  1, TIME INCREMENT   10.0    
 
	UNSYMMETRIC NEW DIRECT SPARSE SOLVER RUNNING ON
 	1 HOST x 1 MPI RANK PER HOST x 1 THREAD PER RANK
        NUMBER OF EQUATIONS:  194265
        NUMBER OF RHS:        1
        NUMBER OF FLOPS:      3.403e+11
        SOLVER ELAPSED TIME:  18s

               CONVERGENCE CHECKS FOR EQUILIBRIUM ITERATION     1


 AVERAGE FORCE                       1.36       TIME AVG. FORCE       0.733    
 LARGEST SCALED RESIDUAL FORCE     -3.876E-07   AT NODE       2877   DOF  2
   INSTANCE: NDBR6-M-1                                                                       
  CORRESPONDING RESIDUAL FORCE     -3.876E-07
 LARGEST INCREMENT OF DISP.         1.500E-05   AT NODE         21   DOF  2
   INSTANCE: NDBR6-M-1                                                                       
 LARGEST CORRECTION TO DISP.        1.299E-10   AT NODE        412   DOF  2
   INSTANCE: NDBR6-M-1                                                                       
          THE FORCE     EQUILIBRIUM EQUATIONS HAVE CONVERGED

 AVERAGE HEAT FLUX                   0.00       TIME AVG. HEAT FLUX   1.000E-02
 ALL HEAT FLUX RESIDUALS ARE ZERO
 ALL TEMP.    INCREMENTS ARE ZERO
 ALL CORRECTION TO TEMP.    ARE ZERO
          THERE IS ZERO HEAT FLUX EVERYWHERE

 MAXIMUM NON-PRESCRIBED INCREMENT IN TEMPERATURE IS    0.00    

 ITERATION SUMMARY FOR THE INCREMENT:   1 TOTAL ITERATIONS, OF WHICH
   0 ARE SEVERE DISCONTINUITY ITERATIONS AND  1 ARE EQUILIBRIUM ITERATIONS.

 TIME INCREMENT COMPLETED   10.0    ,  FRACTION OF STEP COMPLETED  0.130    
 STEP TIME COMPLETED        130.    ,  TOTAL TIME COMPLETED         130.    


  INCREMENT    14 STARTS. ATTEMPT NUMBER  1, TIME INCREMENT   10.0    
 
	UNSYMMETRIC NEW DIRECT SPARSE SOLVER RUNNING ON
 	1 HOST x 1 MPI RANK PER HOST x 1 THREAD PER RANK
        NUMBER OF EQUATIONS:  194265
        NUMBER OF RHS:        1
        NUMBER OF FLOPS:      3.403e+11
        SOLVER ELAPSED TIME:  19s

               CONVERGENCE CHECKS FOR EQUILIBRIUM ITERATION     1


 AVERAGE FORCE                       1.47       TIME AVG. FORCE       0.786    
 LARGEST SCALED RESIDUAL FORCE     -4.191E-07   AT NODE       2875   DOF  2
   INSTANCE: NDBR6-M-1                                                                       
  CORRESPONDING RESIDUAL FORCE     -4.191E-07
 LARGEST INCREMENT OF DISP.         1.500E-05   AT NODE         21   DOF  2
   INSTANCE: NDBR6-M-1                                                                       
 LARGEST CORRECTION TO DISP.        1.299E-10   AT NODE        412   DOF  2
   INSTANCE: NDBR6-M-1                                                                       
          THE FORCE     EQUILIBRIUM EQUATIONS HAVE CONVERGED

 AVERAGE HEAT FLUX                   0.00       TIME AVG. HEAT FLUX   1.000E-02
 ALL HEAT FLUX RESIDUALS ARE ZERO
 ALL TEMP.    INCREMENTS ARE ZERO
 ALL CORRECTION TO TEMP.    ARE ZERO
          THERE IS ZERO HEAT FLUX EVERYWHERE

 MAXIMUM NON-PRESCRIBED INCREMENT IN TEMPERATURE IS    0.00    

 ITERATION SUMMARY FOR THE INCREMENT:   1 TOTAL ITERATIONS, OF WHICH
   0 ARE SEVERE DISCONTINUITY ITERATIONS AND  1 ARE EQUILIBRIUM ITERATIONS.

 TIME INCREMENT COMPLETED   10.0    ,  FRACTION OF STEP COMPLETED  0.140    
 STEP TIME COMPLETED        140.    ,  TOTAL TIME COMPLETED         140.    


  INCREMENT    15 STARTS. ATTEMPT NUMBER  1, TIME INCREMENT   10.0    
 
	UNSYMMETRIC NEW DIRECT SPARSE SOLVER RUNNING ON
 	1 HOST x 1 MPI RANK PER HOST x 1 THREAD PER RANK
        NUMBER OF EQUATIONS:  194265
        NUMBER OF RHS:        1
        NUMBER OF FLOPS:      3.403e+11
        SOLVER ELAPSED TIME:  18s

               CONVERGENCE CHECKS FOR EQUILIBRIUM ITERATION     1


 AVERAGE FORCE                       1.57       TIME AVG. FORCE       0.838    
 LARGEST SCALED RESIDUAL FORCE     -4.505E-07   AT NODE       2875   DOF  2
   INSTANCE: NDBR6-M-1                                                                       
  CORRESPONDING RESIDUAL FORCE     -4.505E-07
 LARGEST INCREMENT OF DISP.         1.500E-05   AT NODE         21   DOF  2
   INSTANCE: NDBR6-M-1                                                                       
 LARGEST CORRECTION TO DISP.        1.299E-10   AT NODE        500   DOF  2
   INSTANCE: NDBR6-M-1                                                                       
          THE FORCE     EQUILIBRIUM EQUATIONS HAVE CONVERGED

 AVERAGE HEAT FLUX                   0.00       TIME AVG. HEAT FLUX   1.000E-02
 ALL HEAT FLUX RESIDUALS ARE ZERO
 ALL TEMP.    INCREMENTS ARE ZERO
 ALL CORRECTION TO TEMP.    ARE ZERO
          THERE IS ZERO HEAT FLUX EVERYWHERE

 MAXIMUM NON-PRESCRIBED INCREMENT IN TEMPERATURE IS    0.00    

 ITERATION SUMMARY FOR THE INCREMENT:   1 TOTAL ITERATIONS, OF WHICH
   0 ARE SEVERE DISCONTINUITY ITERATIONS AND  1 ARE EQUILIBRIUM ITERATIONS.

 TIME INCREMENT COMPLETED   10.0    ,  FRACTION OF STEP COMPLETED  0.150    
 STEP TIME COMPLETED        150.    ,  TOTAL TIME COMPLETED         150.    


  INCREMENT    16 STARTS. ATTEMPT NUMBER  1, TIME INCREMENT   10.0    
 
	UNSYMMETRIC NEW DIRECT SPARSE SOLVER RUNNING ON
 	1 HOST x 1 MPI RANK PER HOST x 1 THREAD PER RANK
        NUMBER OF EQUATIONS:  194265
        NUMBER OF RHS:        1
        NUMBER OF FLOPS:      3.403e+11
        SOLVER ELAPSED TIME:  18s

               CONVERGENCE CHECKS FOR EQUILIBRIUM ITERATION     1


 AVERAGE FORCE                       1.68       TIME AVG. FORCE       0.890    
 LARGEST SCALED RESIDUAL FORCE     -4.820E-07   AT NODE       2875   DOF  2
   INSTANCE: NDBR6-M-1                                                                       
  CORRESPONDING RESIDUAL FORCE     -4.820E-07
 LARGEST INCREMENT OF DISP.         1.500E-05   AT NODE         21   DOF  2
   INSTANCE: NDBR6-M-1                                                                       
 LARGEST CORRECTION TO DISP.        1.299E-10   AT NODE        500   DOF  2
   INSTANCE: NDBR6-M-1                                                                       
          THE FORCE     EQUILIBRIUM EQUATIONS HAVE CONVERGED

 AVERAGE HEAT FLUX                   0.00       TIME AVG. HEAT FLUX   1.000E-02
 ALL HEAT FLUX RESIDUALS ARE ZERO
 ALL TEMP.    INCREMENTS ARE ZERO
 ALL CORRECTION TO TEMP.    ARE ZERO
          THERE IS ZERO HEAT FLUX EVERYWHERE

 MAXIMUM NON-PRESCRIBED INCREMENT IN TEMPERATURE IS    0.00    

 ITERATION SUMMARY FOR THE INCREMENT:   1 TOTAL ITERATIONS, OF WHICH
   0 ARE SEVERE DISCONTINUITY ITERATIONS AND  1 ARE EQUILIBRIUM ITERATIONS.

 TIME INCREMENT COMPLETED   10.0    ,  FRACTION OF STEP COMPLETED  0.160    
 STEP TIME COMPLETED        160.    ,  TOTAL TIME COMPLETED         160.    


  INCREMENT    17 STARTS. ATTEMPT NUMBER  1, TIME INCREMENT   10.0    
 
	UNSYMMETRIC NEW DIRECT SPARSE SOLVER RUNNING ON
 	1 HOST x 1 MPI RANK PER HOST x 1 THREAD PER RANK
        NUMBER OF EQUATIONS:  194265
        NUMBER OF RHS:        1
        NUMBER OF FLOPS:      3.403e+11
        SOLVER ELAPSED TIME:  19s

               CONVERGENCE CHECKS FOR EQUILIBRIUM ITERATION     1


 AVERAGE FORCE                       1.78       TIME AVG. FORCE       0.943    
 LARGEST SCALED RESIDUAL FORCE     -5.134E-07   AT NODE       2877   DOF  2
   INSTANCE: NDBR6-M-1                                                                       
  CORRESPONDING RESIDUAL FORCE     -5.134E-07
 LARGEST INCREMENT OF DISP.         1.500E-05   AT NODE         21   DOF  2
   INSTANCE: NDBR6-M-1                                                                       
 LARGEST CORRECTION TO DISP.        1.299E-10   AT NODE        500   DOF  2
   INSTANCE: NDBR6-M-1                                                                       
          THE FORCE     EQUILIBRIUM EQUATIONS HAVE CONVERGED

 AVERAGE HEAT FLUX                   0.00       TIME AVG. HEAT FLUX   1.000E-02
 ALL HEAT FLUX RESIDUALS ARE ZERO
 ALL TEMP.    INCREMENTS ARE ZERO
 ALL CORRECTION TO TEMP.    ARE ZERO
          THERE IS ZERO HEAT FLUX EVERYWHERE

 MAXIMUM NON-PRESCRIBED INCREMENT IN TEMPERATURE IS    0.00    

 ITERATION SUMMARY FOR THE INCREMENT:   1 TOTAL ITERATIONS, OF WHICH
   0 ARE SEVERE DISCONTINUITY ITERATIONS AND  1 ARE EQUILIBRIUM ITERATIONS.

 TIME INCREMENT COMPLETED   10.0    ,  FRACTION OF STEP COMPLETED  0.170    
 STEP TIME COMPLETED        170.    ,  TOTAL TIME COMPLETED         170.    


  INCREMENT    18 STARTS. ATTEMPT NUMBER  1, TIME INCREMENT   10.0    
 
	UNSYMMETRIC NEW DIRECT SPARSE SOLVER RUNNING ON
 	1 HOST x 1 MPI RANK PER HOST x 1 THREAD PER RANK
        NUMBER OF EQUATIONS:  194265
        NUMBER OF RHS:        1
        NUMBER OF FLOPS:      3.403e+11
        SOLVER ELAPSED TIME:  18s

               CONVERGENCE CHECKS FOR EQUILIBRIUM ITERATION     1


 AVERAGE FORCE                       1.89       TIME AVG. FORCE       0.995    
 LARGEST SCALED RESIDUAL FORCE     -5.448E-07   AT NODE       2875   DOF  2
   INSTANCE: NDBR6-M-1                                                                       
  CORRESPONDING RESIDUAL FORCE     -5.448E-07
 LARGEST INCREMENT OF DISP.         1.500E-05   AT NODE         21   DOF  2
   INSTANCE: NDBR6-M-1                                                                       
 LARGEST CORRECTION TO DISP.        1.299E-10   AT NODE        500   DOF  2
   INSTANCE: NDBR6-M-1                                                                       
          THE FORCE     EQUILIBRIUM EQUATIONS HAVE CONVERGED

 AVERAGE HEAT FLUX                   0.00       TIME AVG. HEAT FLUX   1.000E-02
 ALL HEAT FLUX RESIDUALS ARE ZERO
 ALL TEMP.    INCREMENTS ARE ZERO
 ALL CORRECTION TO TEMP.    ARE ZERO
          THERE IS ZERO HEAT FLUX EVERYWHERE

 MAXIMUM NON-PRESCRIBED INCREMENT IN TEMPERATURE IS    0.00    

 ITERATION SUMMARY FOR THE INCREMENT:   1 TOTAL ITERATIONS, OF WHICH
   0 ARE SEVERE DISCONTINUITY ITERATIONS AND  1 ARE EQUILIBRIUM ITERATIONS.

 TIME INCREMENT COMPLETED   10.0    ,  FRACTION OF STEP COMPLETED  0.180    
 STEP TIME COMPLETED        180.    ,  TOTAL TIME COMPLETED         180.    


  INCREMENT    19 STARTS. ATTEMPT NUMBER  1, TIME INCREMENT   10.0    
 
	UNSYMMETRIC NEW DIRECT SPARSE SOLVER RUNNING ON
 	1 HOST x 1 MPI RANK PER HOST x 1 THREAD PER RANK
        NUMBER OF EQUATIONS:  194265
        NUMBER OF RHS:        1
        NUMBER OF FLOPS:      3.403e+11
        SOLVER ELAPSED TIME:  18s

               CONVERGENCE CHECKS FOR EQUILIBRIUM ITERATION     1


 AVERAGE FORCE                       1.99       TIME AVG. FORCE        1.05    
 LARGEST SCALED RESIDUAL FORCE     -5.762E-07   AT NODE       2875   DOF  2
   INSTANCE: NDBR6-M-1                                                                       
  CORRESPONDING RESIDUAL FORCE     -5.762E-07
 LARGEST INCREMENT OF DISP.         1.500E-05   AT NODE         21   DOF  2
   INSTANCE: NDBR6-M-1                                                                       
 LARGEST CORRECTION TO DISP.        1.298E-10   AT NODE        500   DOF  2
   INSTANCE: NDBR6-M-1                                                                       
          THE FORCE     EQUILIBRIUM EQUATIONS HAVE CONVERGED

 AVERAGE HEAT FLUX                   0.00       TIME AVG. HEAT FLUX   1.000E-02
 ALL HEAT FLUX RESIDUALS ARE ZERO
 ALL TEMP.    INCREMENTS ARE ZERO
 ALL CORRECTION TO TEMP.    ARE ZERO
          THERE IS ZERO HEAT FLUX EVERYWHERE

 MAXIMUM NON-PRESCRIBED INCREMENT IN TEMPERATURE IS    0.00    

 ITERATION SUMMARY FOR THE INCREMENT:   1 TOTAL ITERATIONS, OF WHICH
   0 ARE SEVERE DISCONTINUITY ITERATIONS AND  1 ARE EQUILIBRIUM ITERATIONS.

 TIME INCREMENT COMPLETED   10.0    ,  FRACTION OF STEP COMPLETED  0.190    
 STEP TIME COMPLETED        190.    ,  TOTAL TIME COMPLETED         190.    


  INCREMENT    20 STARTS. ATTEMPT NUMBER  1, TIME INCREMENT   10.0    
 
	UNSYMMETRIC NEW DIRECT SPARSE SOLVER RUNNING ON
 	1 HOST x 1 MPI RANK PER HOST x 1 THREAD PER RANK
        NUMBER OF EQUATIONS:  194265
        NUMBER OF RHS:        1
        NUMBER OF FLOPS:      3.403e+11
        SOLVER ELAPSED TIME:  18s

               CONVERGENCE CHECKS FOR EQUILIBRIUM ITERATION     1


 AVERAGE FORCE                       2.10       TIME AVG. FORCE        1.10    
 LARGEST SCALED RESIDUAL FORCE     -6.076E-07   AT NODE       2877   DOF  2
   INSTANCE: NDBR6-M-1                                                                       
  CORRESPONDING RESIDUAL FORCE     -6.076E-07
 LARGEST INCREMENT OF DISP.         1.500E-05   AT NODE         21   DOF  2
   INSTANCE: NDBR6-M-1                                                                       
 LARGEST CORRECTION TO DISP.        1.298E-10   AT NODE        500   DOF  2
   INSTANCE: NDBR6-M-1                                                                       
          THE FORCE     EQUILIBRIUM EQUATIONS HAVE CONVERGED

 AVERAGE HEAT FLUX                   0.00       TIME AVG. HEAT FLUX   1.000E-02
 ALL HEAT FLUX RESIDUALS ARE ZERO
 ALL TEMP.    INCREMENTS ARE ZERO
 ALL CORRECTION TO TEMP.    ARE ZERO
          THERE IS ZERO HEAT FLUX EVERYWHERE

 MAXIMUM NON-PRESCRIBED INCREMENT IN TEMPERATURE IS    0.00    

 ITERATION SUMMARY FOR THE INCREMENT:   1 TOTAL ITERATIONS, OF WHICH
   0 ARE SEVERE DISCONTINUITY ITERATIONS AND  1 ARE EQUILIBRIUM ITERATIONS.

 TIME INCREMENT COMPLETED   10.0    ,  FRACTION OF STEP COMPLETED  0.200    
 STEP TIME COMPLETED        200.    ,  TOTAL TIME COMPLETED         200.    


  INCREMENT    21 STARTS. ATTEMPT NUMBER  1, TIME INCREMENT   10.0    
 
	UNSYMMETRIC NEW DIRECT SPARSE SOLVER RUNNING ON
 	1 HOST x 1 MPI RANK PER HOST x 1 THREAD PER RANK
        NUMBER OF EQUATIONS:  194265
        NUMBER OF RHS:        1
        NUMBER OF FLOPS:      3.403e+11
        SOLVER ELAPSED TIME:  18s

               CONVERGENCE CHECKS FOR EQUILIBRIUM ITERATION     1


 AVERAGE FORCE                       2.20       TIME AVG. FORCE        1.15    
 LARGEST SCALED RESIDUAL FORCE     -6.389E-07   AT NODE       2877   DOF  2
   INSTANCE: NDBR6-M-1                                                                       
  CORRESPONDING RESIDUAL FORCE     -6.389E-07
 LARGEST INCREMENT OF DISP.         1.500E-05   AT NODE         21   DOF  2
   INSTANCE: NDBR6-M-1                                                                       
 LARGEST CORRECTION TO DISP.        1.298E-10   AT NODE        500   DOF  2
   INSTANCE: NDBR6-M-1                                                                       
          THE FORCE     EQUILIBRIUM EQUATIONS HAVE CONVERGED

 AVERAGE HEAT FLUX                   0.00       TIME AVG. HEAT FLUX   1.000E-02
 ALL HEAT FLUX RESIDUALS ARE ZERO
 ALL TEMP.    INCREMENTS ARE ZERO
 ALL CORRECTION TO TEMP.    ARE ZERO
          THERE IS ZERO HEAT FLUX EVERYWHERE

 MAXIMUM NON-PRESCRIBED INCREMENT IN TEMPERATURE IS    0.00    

 ITERATION SUMMARY FOR THE INCREMENT:   1 TOTAL ITERATIONS, OF WHICH
   0 ARE SEVERE DISCONTINUITY ITERATIONS AND  1 ARE EQUILIBRIUM ITERATIONS.

 TIME INCREMENT COMPLETED   10.0    ,  FRACTION OF STEP COMPLETED  0.210    
 STEP TIME COMPLETED        210.    ,  TOTAL TIME COMPLETED         210.    


  INCREMENT    22 STARTS. ATTEMPT NUMBER  1, TIME INCREMENT   10.0    
 
	UNSYMMETRIC NEW DIRECT SPARSE SOLVER RUNNING ON
 	1 HOST x 1 MPI RANK PER HOST x 1 THREAD PER RANK
        NUMBER OF EQUATIONS:  194265
        NUMBER OF RHS:        1
        NUMBER OF FLOPS:      3.403e+11
        SOLVER ELAPSED TIME:  18s

               CONVERGENCE CHECKS FOR EQUILIBRIUM ITERATION     1


 AVERAGE FORCE                       2.30       TIME AVG. FORCE        1.20    
 LARGEST SCALED RESIDUAL FORCE     -6.703E-07   AT NODE       2877   DOF  2
   INSTANCE: NDBR6-M-1                                                                       
  CORRESPONDING RESIDUAL FORCE     -6.703E-07
 LARGEST INCREMENT OF DISP.         1.500E-05   AT NODE         21   DOF  2
   INSTANCE: NDBR6-M-1                                                                       
 LARGEST CORRECTION TO DISP.        1.298E-10   AT NODE        500   DOF  2
   INSTANCE: NDBR6-M-1                                                                       
          THE FORCE     EQUILIBRIUM EQUATIONS HAVE CONVERGED

 AVERAGE HEAT FLUX                   0.00       TIME AVG. HEAT FLUX   1.000E-02
 ALL HEAT FLUX RESIDUALS ARE ZERO
 ALL TEMP.    INCREMENTS ARE ZERO
 ALL CORRECTION TO TEMP.    ARE ZERO
          THERE IS ZERO HEAT FLUX EVERYWHERE

 MAXIMUM NON-PRESCRIBED INCREMENT IN TEMPERATURE IS    0.00    

 ITERATION SUMMARY FOR THE INCREMENT:   1 TOTAL ITERATIONS, OF WHICH
   0 ARE SEVERE DISCONTINUITY ITERATIONS AND  1 ARE EQUILIBRIUM ITERATIONS.

 TIME INCREMENT COMPLETED   10.0    ,  FRACTION OF STEP COMPLETED  0.220    
 STEP TIME COMPLETED        220.    ,  TOTAL TIME COMPLETED         220.    


  INCREMENT    23 STARTS. ATTEMPT NUMBER  1, TIME INCREMENT   10.0    
 
	UNSYMMETRIC NEW DIRECT SPARSE SOLVER RUNNING ON
 	1 HOST x 1 MPI RANK PER HOST x 1 THREAD PER RANK
        NUMBER OF EQUATIONS:  194265
        NUMBER OF RHS:        1
        NUMBER OF FLOPS:      3.403e+11
        SOLVER ELAPSED TIME:  18s

               CONVERGENCE CHECKS FOR EQUILIBRIUM ITERATION     1


 AVERAGE FORCE                       2.41       TIME AVG. FORCE        1.26    
 LARGEST SCALED RESIDUAL FORCE     -7.016E-07   AT NODE       2875   DOF  2
   INSTANCE: NDBR6-M-1                                                                       
  CORRESPONDING RESIDUAL FORCE     -7.016E-07
 LARGEST INCREMENT OF DISP.         1.500E-05   AT NODE         21   DOF  2
   INSTANCE: NDBR6-M-1                                                                       
 LARGEST CORRECTION TO DISP.        1.298E-10   AT NODE        500   DOF  2
   INSTANCE: NDBR6-M-1                                                                       
          THE FORCE     EQUILIBRIUM EQUATIONS HAVE CONVERGED

 AVERAGE HEAT FLUX                   0.00       TIME AVG. HEAT FLUX   1.000E-02
 ALL HEAT FLUX RESIDUALS ARE ZERO
 ALL TEMP.    INCREMENTS ARE ZERO
 ALL CORRECTION TO TEMP.    ARE ZERO
          THERE IS ZERO HEAT FLUX EVERYWHERE

 MAXIMUM NON-PRESCRIBED INCREMENT IN TEMPERATURE IS    0.00    

 ITERATION SUMMARY FOR THE INCREMENT:   1 TOTAL ITERATIONS, OF WHICH
   0 ARE SEVERE DISCONTINUITY ITERATIONS AND  1 ARE EQUILIBRIUM ITERATIONS.

 TIME INCREMENT COMPLETED   10.0    ,  FRACTION OF STEP COMPLETED  0.230    
 STEP TIME COMPLETED        230.    ,  TOTAL TIME COMPLETED         230.    


  INCREMENT    24 STARTS. ATTEMPT NUMBER  1, TIME INCREMENT   10.0    
 
	UNSYMMETRIC NEW DIRECT SPARSE SOLVER RUNNING ON
 	1 HOST x 1 MPI RANK PER HOST x 1 THREAD PER RANK
        NUMBER OF EQUATIONS:  194265
        NUMBER OF RHS:        1
        NUMBER OF FLOPS:      3.403e+11
        SOLVER ELAPSED TIME:  18s

               CONVERGENCE CHECKS FOR EQUILIBRIUM ITERATION     1


 AVERAGE FORCE                       2.51       TIME AVG. FORCE        1.31    
 LARGEST SCALED RESIDUAL FORCE     -7.330E-07   AT NODE       2877   DOF  2
   INSTANCE: NDBR6-M-1                                                                       
  CORRESPONDING RESIDUAL FORCE     -7.330E-07
 LARGEST INCREMENT OF DISP.         1.500E-05   AT NODE         21   DOF  2
   INSTANCE: NDBR6-M-1                                                                       
 LARGEST CORRECTION TO DISP.        1.298E-10   AT NODE        500   DOF  2
   INSTANCE: NDBR6-M-1                                                                       
          THE FORCE     EQUILIBRIUM EQUATIONS HAVE CONVERGED

 AVERAGE HEAT FLUX                   0.00       TIME AVG. HEAT FLUX   1.000E-02
 ALL HEAT FLUX RESIDUALS ARE ZERO
 ALL TEMP.    INCREMENTS ARE ZERO
 ALL CORRECTION TO TEMP.    ARE ZERO
          THERE IS ZERO HEAT FLUX EVERYWHERE

 MAXIMUM NON-PRESCRIBED INCREMENT IN TEMPERATURE IS    0.00    

 ITERATION SUMMARY FOR THE INCREMENT:   1 TOTAL ITERATIONS, OF WHICH
   0 ARE SEVERE DISCONTINUITY ITERATIONS AND  1 ARE EQUILIBRIUM ITERATIONS.

 TIME INCREMENT COMPLETED   10.0    ,  FRACTION OF STEP COMPLETED  0.240    
 STEP TIME COMPLETED        240.    ,  TOTAL TIME COMPLETED         240.    


  INCREMENT    25 STARTS. ATTEMPT NUMBER  1, TIME INCREMENT   10.0    
 
	UNSYMMETRIC NEW DIRECT SPARSE SOLVER RUNNING ON
 	1 HOST x 1 MPI RANK PER HOST x 1 THREAD PER RANK
        NUMBER OF EQUATIONS:  194265
        NUMBER OF RHS:        1
        NUMBER OF FLOPS:      3.403e+11
        SOLVER ELAPSED TIME:  18s

               CONVERGENCE CHECKS FOR EQUILIBRIUM ITERATION     1


 AVERAGE FORCE                       2.62       TIME AVG. FORCE        1.36    
 LARGEST SCALED RESIDUAL FORCE     -7.643E-07   AT NODE       2877   DOF  2
   INSTANCE: NDBR6-M-1                                                                       
  CORRESPONDING RESIDUAL FORCE     -7.643E-07
 LARGEST INCREMENT OF DISP.         1.500E-05   AT NODE         21   DOF  2
   INSTANCE: NDBR6-M-1                                                                       
 LARGEST CORRECTION TO DISP.        1.298E-10   AT NODE        500   DOF  2
   INSTANCE: NDBR6-M-1                                                                       
          THE FORCE     EQUILIBRIUM EQUATIONS HAVE CONVERGED

 AVERAGE HEAT FLUX                   0.00       TIME AVG. HEAT FLUX   1.000E-02
 ALL HEAT FLUX RESIDUALS ARE ZERO
 ALL TEMP.    INCREMENTS ARE ZERO
 ALL CORRECTION TO TEMP.    ARE ZERO
          THERE IS ZERO HEAT FLUX EVERYWHERE

 MAXIMUM NON-PRESCRIBED INCREMENT IN TEMPERATURE IS    0.00    

 ITERATION SUMMARY FOR THE INCREMENT:   1 TOTAL ITERATIONS, OF WHICH
   0 ARE SEVERE DISCONTINUITY ITERATIONS AND  1 ARE EQUILIBRIUM ITERATIONS.

 TIME INCREMENT COMPLETED   10.0    ,  FRACTION OF STEP COMPLETED  0.250    
 STEP TIME COMPLETED        250.    ,  TOTAL TIME COMPLETED         250.    


  INCREMENT    26 STARTS. ATTEMPT NUMBER  1, TIME INCREMENT   10.0    
 
	UNSYMMETRIC NEW DIRECT SPARSE SOLVER RUNNING ON
 	1 HOST x 1 MPI RANK PER HOST x 1 THREAD PER RANK
        NUMBER OF EQUATIONS:  194265
        NUMBER OF RHS:        1
        NUMBER OF FLOPS:      3.403e+11
        SOLVER ELAPSED TIME:  18s

               CONVERGENCE CHECKS FOR EQUILIBRIUM ITERATION     1


 AVERAGE FORCE                       2.72       TIME AVG. FORCE        1.41    
 LARGEST SCALED RESIDUAL FORCE     -7.956E-07   AT NODE       2877   DOF  2
   INSTANCE: NDBR6-M-1                                                                       
  CORRESPONDING RESIDUAL FORCE     -7.956E-07
 LARGEST INCREMENT OF DISP.         1.500E-05   AT NODE         21   DOF  2
   INSTANCE: NDBR6-M-1                                                                       
 LARGEST CORRECTION TO DISP.        1.297E-10   AT NODE        500   DOF  2
   INSTANCE: NDBR6-M-1                                                                       
          THE FORCE     EQUILIBRIUM EQUATIONS HAVE CONVERGED

 AVERAGE HEAT FLUX                   0.00       TIME AVG. HEAT FLUX   1.000E-02
 ALL HEAT FLUX RESIDUALS ARE ZERO
 ALL TEMP.    INCREMENTS ARE ZERO
 ALL CORRECTION TO TEMP.    ARE ZERO
          THERE IS ZERO HEAT FLUX EVERYWHERE

 MAXIMUM NON-PRESCRIBED INCREMENT IN TEMPERATURE IS    0.00    

 ITERATION SUMMARY FOR THE INCREMENT:   1 TOTAL ITERATIONS, OF WHICH
   0 ARE SEVERE DISCONTINUITY ITERATIONS AND  1 ARE EQUILIBRIUM ITERATIONS.

 TIME INCREMENT COMPLETED   10.0    ,  FRACTION OF STEP COMPLETED  0.260    
 STEP TIME COMPLETED        260.    ,  TOTAL TIME COMPLETED         260.    


  INCREMENT    27 STARTS. ATTEMPT NUMBER  1, TIME INCREMENT   10.0    
 
	UNSYMMETRIC NEW DIRECT SPARSE SOLVER RUNNING ON
 	1 HOST x 1 MPI RANK PER HOST x 1 THREAD PER RANK
        NUMBER OF EQUATIONS:  194265
        NUMBER OF RHS:        1
        NUMBER OF FLOPS:      3.403e+11
        SOLVER ELAPSED TIME:  18s

               CONVERGENCE CHECKS FOR EQUILIBRIUM ITERATION     1


 AVERAGE FORCE                       2.83       TIME AVG. FORCE        1.47    
 LARGEST SCALED RESIDUAL FORCE     -7.390E-03   AT NODE      44242   DOF  2
   INSTANCE: NDBR6-M-1                                                                       
  CORRESPONDING RESIDUAL FORCE     -7.390E-03
 LARGEST INCREMENT OF DISP.         1.500E-05   AT NODE         21   DOF  2
   INSTANCE: NDBR6-M-1                                                                       
 LARGEST CORRECTION TO DISP.        7.047E-09   AT NODE      21206   DOF  3
   INSTANCE: NDBR6-M-1                                                                       
          FORCE     EQUILIBRIUM NOT ACHIEVED WITHIN TOLERANCE.

 AVERAGE HEAT FLUX                   0.00       TIME AVG. HEAT FLUX   1.000E-02
 ALL HEAT FLUX RESIDUALS ARE ZERO
 ALL TEMP.    INCREMENTS ARE ZERO
 ALL CORRECTION TO TEMP.    ARE ZERO
          THERE IS ZERO HEAT FLUX EVERYWHERE
 
	UNSYMMETRIC NEW DIRECT SPARSE SOLVER RUNNING ON
 	1 HOST x 1 MPI RANK PER HOST x 1 THREAD PER RANK
        NUMBER OF EQUATIONS:  194265
        NUMBER OF RHS:        1
        NUMBER OF FLOPS:      3.403e+11
        SOLVER ELAPSED TIME:  18s

               CONVERGENCE CHECKS FOR EQUILIBRIUM ITERATION     2


 AVERAGE FORCE                       2.83       TIME AVG. FORCE        1.47    
 LARGEST SCALED RESIDUAL FORCE      5.417E-05   AT NODE      36355   DOF  2
   INSTANCE: NDBR6-M-1                                                                       
  CORRESPONDING RESIDUAL FORCE      5.417E-05
 LARGEST INCREMENT OF DISP.         1.500E-05   AT NODE         21   DOF  2
   INSTANCE: NDBR6-M-1                                                                       
 LARGEST CORRECTION TO DISP.        2.740E-10   AT NODE      44256   DOF  2
   INSTANCE: NDBR6-M-1                                                                       
          THE FORCE     EQUILIBRIUM EQUATIONS HAVE CONVERGED

 AVERAGE HEAT FLUX                   0.00       TIME AVG. HEAT FLUX   1.000E-02
 ALL HEAT FLUX RESIDUALS ARE ZERO
 ALL TEMP.    INCREMENTS ARE ZERO
 ALL CORRECTION TO TEMP.    ARE ZERO
          THERE IS ZERO HEAT FLUX EVERYWHERE

 MAXIMUM NON-PRESCRIBED INCREMENT IN TEMPERATURE IS    0.00    

 ITERATION SUMMARY FOR THE INCREMENT:   2 TOTAL ITERATIONS, OF WHICH
   0 ARE SEVERE DISCONTINUITY ITERATIONS AND  2 ARE EQUILIBRIUM ITERATIONS.

 TIME INCREMENT COMPLETED   10.0    ,  FRACTION OF STEP COMPLETED  0.270    
 STEP TIME COMPLETED        270.    ,  TOTAL TIME COMPLETED         270.    


  INCREMENT    28 STARTS. ATTEMPT NUMBER  1, TIME INCREMENT   10.0    
 
	UNSYMMETRIC NEW DIRECT SPARSE SOLVER RUNNING ON
 	1 HOST x 1 MPI RANK PER HOST x 1 THREAD PER RANK
        NUMBER OF EQUATIONS:  194265
        NUMBER OF RHS:        1
        NUMBER OF FLOPS:      3.403e+11
        SOLVER ELAPSED TIME:  18s

               CONVERGENCE CHECKS FOR EQUILIBRIUM ITERATION     1


 AVERAGE FORCE                       2.93       TIME AVG. FORCE        1.52    
 LARGEST SCALED RESIDUAL FORCE     -8.244E-03   AT NODE      12730   DOF  2
   INSTANCE: NDBR6-M-1                                                                       
  CORRESPONDING RESIDUAL FORCE     -8.244E-03
 LARGEST INCREMENT OF DISP.         1.500E-05   AT NODE         21   DOF  2
   INSTANCE: NDBR6-M-1                                                                       
 LARGEST CORRECTION TO DISP.        1.642E-08   AT NODE      18884   DOF  2
   INSTANCE: NDBR6-M-1                                                                       
          FORCE     EQUILIBRIUM NOT ACHIEVED WITHIN TOLERANCE.

 AVERAGE HEAT FLUX                   0.00       TIME AVG. HEAT FLUX   1.000E-02
 ALL HEAT FLUX RESIDUALS ARE ZERO
 ALL TEMP.    INCREMENTS ARE ZERO
 ALL CORRECTION TO TEMP.    ARE ZERO
          THERE IS ZERO HEAT FLUX EVERYWHERE
 
	UNSYMMETRIC NEW DIRECT SPARSE SOLVER RUNNING ON
 	1 HOST x 1 MPI RANK PER HOST x 1 THREAD PER RANK
        NUMBER OF EQUATIONS:  194265
        NUMBER OF RHS:        1
        NUMBER OF FLOPS:      3.403e+11
        SOLVER ELAPSED TIME:  17s

               CONVERGENCE CHECKS FOR EQUILIBRIUM ITERATION     2


 AVERAGE FORCE                       2.93       TIME AVG. FORCE        1.52    
 LARGEST SCALED RESIDUAL FORCE     -9.177E-05   AT NODE      12870   DOF  2
   INSTANCE: NDBR6-M-1                                                                       
  CORRESPONDING RESIDUAL FORCE     -9.177E-05
 LARGEST INCREMENT OF DISP.         1.500E-05   AT NODE         21   DOF  2
   INSTANCE: NDBR6-M-1                                                                       
 LARGEST CORRECTION TO DISP.       -3.187E-10   AT NODE      12730   DOF  2
   INSTANCE: NDBR6-M-1                                                                       
          THE FORCE     EQUILIBRIUM EQUATIONS HAVE CONVERGED

 AVERAGE HEAT FLUX                   0.00       TIME AVG. HEAT FLUX   1.000E-02
 ALL HEAT FLUX RESIDUALS ARE ZERO
 ALL TEMP.    INCREMENTS ARE ZERO
 ALL CORRECTION TO TEMP.    ARE ZERO
          THERE IS ZERO HEAT FLUX EVERYWHERE

 MAXIMUM NON-PRESCRIBED INCREMENT IN TEMPERATURE IS    0.00    

 ITERATION SUMMARY FOR THE INCREMENT:   2 TOTAL ITERATIONS, OF WHICH
   0 ARE SEVERE DISCONTINUITY ITERATIONS AND  2 ARE EQUILIBRIUM ITERATIONS.

 TIME INCREMENT COMPLETED   10.0    ,  FRACTION OF STEP COMPLETED  0.280    
 STEP TIME COMPLETED        280.    ,  TOTAL TIME COMPLETED         280.    


  INCREMENT    29 STARTS. ATTEMPT NUMBER  1, TIME INCREMENT   10.0    
 
	UNSYMMETRIC NEW DIRECT SPARSE SOLVER RUNNING ON
 	1 HOST x 1 MPI RANK PER HOST x 1 THREAD PER RANK
        NUMBER OF EQUATIONS:  194265
        NUMBER OF RHS:        1
        NUMBER OF FLOPS:      3.403e+11
        SOLVER ELAPSED TIME:  18s

               CONVERGENCE CHECKS FOR EQUILIBRIUM ITERATION     1


 AVERAGE FORCE                       3.04       TIME AVG. FORCE        1.57    
 LARGEST SCALED RESIDUAL FORCE     -9.577E-03   AT NODE      12762   DOF  2
   INSTANCE: NDBR6-M-1                                                                       
  CORRESPONDING RESIDUAL FORCE     -9.577E-03
 LARGEST INCREMENT OF DISP.         1.500E-05   AT NODE         21   DOF  2
   INSTANCE: NDBR6-M-1                                                                       
 LARGEST CORRECTION TO DISP.        1.766E-08   AT NODE      18905   DOF  2
   INSTANCE: NDBR6-M-1                                                                       
          FORCE     EQUILIBRIUM NOT ACHIEVED WITHIN TOLERANCE.

 AVERAGE HEAT FLUX                   0.00       TIME AVG. HEAT FLUX   1.000E-02
 ALL HEAT FLUX RESIDUALS ARE ZERO
 ALL TEMP.    INCREMENTS ARE ZERO
 ALL CORRECTION TO TEMP.    ARE ZERO
          THERE IS ZERO HEAT FLUX EVERYWHERE
 
	UNSYMMETRIC NEW DIRECT SPARSE SOLVER RUNNING ON
 	1 HOST x 1 MPI RANK PER HOST x 1 THREAD PER RANK
        NUMBER OF EQUATIONS:  194265
        NUMBER OF RHS:        1
        NUMBER OF FLOPS:      3.403e+11
        SOLVER ELAPSED TIME:  18s

               CONVERGENCE CHECKS FOR EQUILIBRIUM ITERATION     2


 AVERAGE FORCE                       3.04       TIME AVG. FORCE        1.57    
 LARGEST SCALED RESIDUAL FORCE     -7.466E-05   AT NODE      43436   DOF  2
   INSTANCE: NDBR6-M-1                                                                       
  CORRESPONDING RESIDUAL FORCE     -7.466E-05
 LARGEST INCREMENT OF DISP.         1.500E-05   AT NODE         21   DOF  2
   INSTANCE: NDBR6-M-1                                                                       
 LARGEST CORRECTION TO DISP.       -3.780E-10   AT NODE      12762   DOF  2
   INSTANCE: NDBR6-M-1                                                                       
          THE FORCE     EQUILIBRIUM EQUATIONS HAVE CONVERGED

 AVERAGE HEAT FLUX                   0.00       TIME AVG. HEAT FLUX   1.000E-02
 ALL HEAT FLUX RESIDUALS ARE ZERO
 ALL TEMP.    INCREMENTS ARE ZERO
 ALL CORRECTION TO TEMP.    ARE ZERO
          THERE IS ZERO HEAT FLUX EVERYWHERE

 MAXIMUM NON-PRESCRIBED INCREMENT IN TEMPERATURE IS    0.00    

 ITERATION SUMMARY FOR THE INCREMENT:   2 TOTAL ITERATIONS, OF WHICH
   0 ARE SEVERE DISCONTINUITY ITERATIONS AND  2 ARE EQUILIBRIUM ITERATIONS.

 TIME INCREMENT COMPLETED   10.0    ,  FRACTION OF STEP COMPLETED  0.290    
 STEP TIME COMPLETED        290.    ,  TOTAL TIME COMPLETED         290.    


  INCREMENT    30 STARTS. ATTEMPT NUMBER  1, TIME INCREMENT   10.0    
 
	UNSYMMETRIC NEW DIRECT SPARSE SOLVER RUNNING ON
 	1 HOST x 1 MPI RANK PER HOST x 1 THREAD PER RANK
        NUMBER OF EQUATIONS:  194265
        NUMBER OF RHS:        1
        NUMBER OF FLOPS:      3.403e+11
        SOLVER ELAPSED TIME:  18s

               CONVERGENCE CHECKS FOR EQUILIBRIUM ITERATION     1


 AVERAGE FORCE                       3.14       TIME AVG. FORCE        1.62    
 LARGEST SCALED RESIDUAL FORCE     -5.011E-03   AT NODE      12725   DOF  2
   INSTANCE: NDBR6-M-1                                                                       
  CORRESPONDING RESIDUAL FORCE     -5.011E-03
 LARGEST INCREMENT OF DISP.         1.500E-05   AT NODE         21   DOF  2
   INSTANCE: NDBR6-M-1                                                                       
 LARGEST CORRECTION TO DISP.        1.804E-08   AT NODE      13058   DOF  2
   INSTANCE: NDBR6-M-1                                                                       
          THE FORCE     EQUILIBRIUM EQUATIONS HAVE CONVERGED

 AVERAGE HEAT FLUX                   0.00       TIME AVG. HEAT FLUX   1.000E-02
 ALL HEAT FLUX RESIDUALS ARE ZERO
 ALL TEMP.    INCREMENTS ARE ZERO
 ALL CORRECTION TO TEMP.    ARE ZERO
          THERE IS ZERO HEAT FLUX EVERYWHERE

 MAXIMUM NON-PRESCRIBED INCREMENT IN TEMPERATURE IS    0.00    

 ITERATION SUMMARY FOR THE INCREMENT:   1 TOTAL ITERATIONS, OF WHICH
   0 ARE SEVERE DISCONTINUITY ITERATIONS AND  1 ARE EQUILIBRIUM ITERATIONS.

 TIME INCREMENT COMPLETED   10.0    ,  FRACTION OF STEP COMPLETED  0.300    
 STEP TIME COMPLETED        300.    ,  TOTAL TIME COMPLETED         300.    


  INCREMENT    31 STARTS. ATTEMPT NUMBER  1, TIME INCREMENT   10.0    
 
	UNSYMMETRIC NEW DIRECT SPARSE SOLVER RUNNING ON
 	1 HOST x 1 MPI RANK PER HOST x 1 THREAD PER RANK
        NUMBER OF EQUATIONS:  194265
        NUMBER OF RHS:        1
        NUMBER OF FLOPS:      3.403e+11
        SOLVER ELAPSED TIME:  18s

               CONVERGENCE CHECKS FOR EQUILIBRIUM ITERATION     1


 AVERAGE FORCE                       3.25       TIME AVG. FORCE        1.68    
 LARGEST SCALED RESIDUAL FORCE     -8.521E-03   AT NODE      12828   DOF  2
   INSTANCE: NDBR6-M-1                                                                       
  CORRESPONDING RESIDUAL FORCE     -8.521E-03
 LARGEST INCREMENT OF DISP.         1.500E-05   AT NODE         21   DOF  2
   INSTANCE: NDBR6-M-1                                                                       
 LARGEST CORRECTION TO DISP.        1.793E-08   AT NODE      13072   DOF  2
   INSTANCE: NDBR6-M-1                                                                       
          FORCE     EQUILIBRIUM NOT ACHIEVED WITHIN TOLERANCE.

 AVERAGE HEAT FLUX                   0.00       TIME AVG. HEAT FLUX   1.000E-02
 ALL HEAT FLUX RESIDUALS ARE ZERO
 ALL TEMP.    INCREMENTS ARE ZERO
 ALL CORRECTION TO TEMP.    ARE ZERO
          THERE IS ZERO HEAT FLUX EVERYWHERE
 
	UNSYMMETRIC NEW DIRECT SPARSE SOLVER RUNNING ON
 	1 HOST x 1 MPI RANK PER HOST x 1 THREAD PER RANK
        NUMBER OF EQUATIONS:  194265
        NUMBER OF RHS:        1
        NUMBER OF FLOPS:      3.403e+11
        SOLVER ELAPSED TIME:  18s

               CONVERGENCE CHECKS FOR EQUILIBRIUM ITERATION     2


 AVERAGE FORCE                       3.25       TIME AVG. FORCE        1.68    
 LARGEST SCALED RESIDUAL FORCE      2.371E-05   AT NODE      44778   DOF  2
   INSTANCE: NDBR6-M-1                                                                       
  CORRESPONDING RESIDUAL FORCE      2.371E-05
 LARGEST INCREMENT OF DISP.         1.500E-05   AT NODE         21   DOF  2
   INSTANCE: NDBR6-M-1                                                                       
 LARGEST CORRECTION TO DISP.       -3.157E-10   AT NODE      12793   DOF  2
   INSTANCE: NDBR6-M-1                                                                       
          THE FORCE     EQUILIBRIUM EQUATIONS HAVE CONVERGED

 AVERAGE HEAT FLUX                   0.00       TIME AVG. HEAT FLUX   1.000E-02
 ALL HEAT FLUX RESIDUALS ARE ZERO
 ALL TEMP.    INCREMENTS ARE ZERO
 ALL CORRECTION TO TEMP.    ARE ZERO
          THERE IS ZERO HEAT FLUX EVERYWHERE

 MAXIMUM NON-PRESCRIBED INCREMENT IN TEMPERATURE IS    0.00    

 ITERATION SUMMARY FOR THE INCREMENT:   2 TOTAL ITERATIONS, OF WHICH
   0 ARE SEVERE DISCONTINUITY ITERATIONS AND  2 ARE EQUILIBRIUM ITERATIONS.

 TIME INCREMENT COMPLETED   10.0    ,  FRACTION OF STEP COMPLETED  0.310    
 STEP TIME COMPLETED        310.    ,  TOTAL TIME COMPLETED         310.    


  INCREMENT    32 STARTS. ATTEMPT NUMBER  1, TIME INCREMENT   10.0    
 
	UNSYMMETRIC NEW DIRECT SPARSE SOLVER RUNNING ON
 	1 HOST x 1 MPI RANK PER HOST x 1 THREAD PER RANK
        NUMBER OF EQUATIONS:  194265
        NUMBER OF RHS:        1
        NUMBER OF FLOPS:      3.403e+11
        SOLVER ELAPSED TIME:  18s

               CONVERGENCE CHECKS FOR EQUILIBRIUM ITERATION     1


 AVERAGE FORCE                       3.35       TIME AVG. FORCE        1.73    
 LARGEST SCALED RESIDUAL FORCE     -8.646E-03   AT NODE      12420   DOF  2
   INSTANCE: NDBR6-M-1                                                                       
  CORRESPONDING RESIDUAL FORCE     -8.646E-03
 LARGEST INCREMENT OF DISP.         1.500E-05   AT NODE         21   DOF  2
   INSTANCE: NDBR6-M-1                                                                       
 LARGEST CORRECTION TO DISP.        1.946E-08   AT NODE      13085   DOF  2
   INSTANCE: NDBR6-M-1                                                                       
          FORCE     EQUILIBRIUM NOT ACHIEVED WITHIN TOLERANCE.

 AVERAGE HEAT FLUX                   0.00       TIME AVG. HEAT FLUX   1.000E-02
 ALL HEAT FLUX RESIDUALS ARE ZERO
 ALL TEMP.    INCREMENTS ARE ZERO
 ALL CORRECTION TO TEMP.    ARE ZERO
          THERE IS ZERO HEAT FLUX EVERYWHERE
 
	UNSYMMETRIC NEW DIRECT SPARSE SOLVER RUNNING ON
 	1 HOST x 1 MPI RANK PER HOST x 1 THREAD PER RANK
        NUMBER OF EQUATIONS:  194265
        NUMBER OF RHS:        1
        NUMBER OF FLOPS:      3.403e+11
        SOLVER ELAPSED TIME:  18s

               CONVERGENCE CHECKS FOR EQUILIBRIUM ITERATION     2


 AVERAGE FORCE                       3.35       TIME AVG. FORCE        1.73    
 LARGEST SCALED RESIDUAL FORCE     -8.515E-05   AT NODE      11078   DOF  2
   INSTANCE: NDBR6-M-1                                                                       
  CORRESPONDING RESIDUAL FORCE     -8.515E-05
 LARGEST INCREMENT OF DISP.         1.500E-05   AT NODE         21   DOF  2
   INSTANCE: NDBR6-M-1                                                                       
 LARGEST CORRECTION TO DISP.        2.617E-10   AT NODE      15618   DOF  2
   INSTANCE: NDBR6-M-1                                                                       
          THE FORCE     EQUILIBRIUM EQUATIONS HAVE CONVERGED

 AVERAGE HEAT FLUX                   0.00       TIME AVG. HEAT FLUX   1.000E-02
 ALL HEAT FLUX RESIDUALS ARE ZERO
 ALL TEMP.    INCREMENTS ARE ZERO
 ALL CORRECTION TO TEMP.    ARE ZERO
          THERE IS ZERO HEAT FLUX EVERYWHERE

 MAXIMUM NON-PRESCRIBED INCREMENT IN TEMPERATURE IS    0.00    

 ITERATION SUMMARY FOR THE INCREMENT:   2 TOTAL ITERATIONS, OF WHICH
   0 ARE SEVERE DISCONTINUITY ITERATIONS AND  2 ARE EQUILIBRIUM ITERATIONS.

 TIME INCREMENT COMPLETED   10.0    ,  FRACTION OF STEP COMPLETED  0.320    
 STEP TIME COMPLETED        320.    ,  TOTAL TIME COMPLETED         320.    


  INCREMENT    33 STARTS. ATTEMPT NUMBER  1, TIME INCREMENT   10.0    
 
	UNSYMMETRIC NEW DIRECT SPARSE SOLVER RUNNING ON
 	1 HOST x 1 MPI RANK PER HOST x 1 THREAD PER RANK
        NUMBER OF EQUATIONS:  194265
        NUMBER OF RHS:        1
        NUMBER OF FLOPS:      3.403e+11
        SOLVER ELAPSED TIME:  18s

               CONVERGENCE CHECKS FOR EQUILIBRIUM ITERATION     1


 AVERAGE FORCE                       3.46       TIME AVG. FORCE        1.78    
 LARGEST SCALED RESIDUAL FORCE     -2.875E-03   AT NODE      43805   DOF  2
   INSTANCE: NDBR6-M-1                                                                       
  CORRESPONDING RESIDUAL FORCE     -2.875E-03
 LARGEST INCREMENT OF DISP.         1.500E-05   AT NODE         21   DOF  2
   INSTANCE: NDBR6-M-1                                                                       
 LARGEST CORRECTION TO DISP.        2.107E-08   AT NODE      18958   DOF  2
   INSTANCE: NDBR6-M-1                                                                       
          THE FORCE     EQUILIBRIUM EQUATIONS HAVE CONVERGED

 AVERAGE HEAT FLUX                   0.00       TIME AVG. HEAT FLUX   1.000E-02
 ALL HEAT FLUX RESIDUALS ARE ZERO
 ALL TEMP.    INCREMENTS ARE ZERO
 ALL CORRECTION TO TEMP.    ARE ZERO
          THERE IS ZERO HEAT FLUX EVERYWHERE

 MAXIMUM NON-PRESCRIBED INCREMENT IN TEMPERATURE IS    0.00    

 ITERATION SUMMARY FOR THE INCREMENT:   1 TOTAL ITERATIONS, OF WHICH
   0 ARE SEVERE DISCONTINUITY ITERATIONS AND  1 ARE EQUILIBRIUM ITERATIONS.

 TIME INCREMENT COMPLETED   10.0    ,  FRACTION OF STEP COMPLETED  0.330    
 STEP TIME COMPLETED        330.    ,  TOTAL TIME COMPLETED         330.    


  INCREMENT    34 STARTS. ATTEMPT NUMBER  1, TIME INCREMENT   10.0    
 
	UNSYMMETRIC NEW DIRECT SPARSE SOLVER RUNNING ON
 	1 HOST x 1 MPI RANK PER HOST x 1 THREAD PER RANK
        NUMBER OF EQUATIONS:  194265
        NUMBER OF RHS:        1
        NUMBER OF FLOPS:      3.403e+11
        SOLVER ELAPSED TIME:  19s

               CONVERGENCE CHECKS FOR EQUILIBRIUM ITERATION     1


 AVERAGE FORCE                       3.56       TIME AVG. FORCE        1.83    
 LARGEST SCALED RESIDUAL FORCE      5.389E-03   AT NODE      60690   DOF  2
   INSTANCE: NDBR6-M-1                                                                       
  CORRESPONDING RESIDUAL FORCE      5.389E-03
 LARGEST INCREMENT OF DISP.         1.500E-05   AT NODE         21   DOF  2
   INSTANCE: NDBR6-M-1                                                                       
 LARGEST CORRECTION TO DISP.        2.247E-08   AT NODE      18959   DOF  2
   INSTANCE: NDBR6-M-1                                                                       
          THE FORCE     EQUILIBRIUM EQUATIONS HAVE CONVERGED

 AVERAGE HEAT FLUX                   0.00       TIME AVG. HEAT FLUX   1.000E-02
 ALL HEAT FLUX RESIDUALS ARE ZERO
 ALL TEMP.    INCREMENTS ARE ZERO
 ALL CORRECTION TO TEMP.    ARE ZERO
          THERE IS ZERO HEAT FLUX EVERYWHERE

 MAXIMUM NON-PRESCRIBED INCREMENT IN TEMPERATURE IS    0.00    

 ITERATION SUMMARY FOR THE INCREMENT:   1 TOTAL ITERATIONS, OF WHICH
   0 ARE SEVERE DISCONTINUITY ITERATIONS AND  1 ARE EQUILIBRIUM ITERATIONS.

 TIME INCREMENT COMPLETED   10.0    ,  FRACTION OF STEP COMPLETED  0.340    
 STEP TIME COMPLETED        340.    ,  TOTAL TIME COMPLETED         340.    


  INCREMENT    35 STARTS. ATTEMPT NUMBER  1, TIME INCREMENT   10.0    
 
	UNSYMMETRIC NEW DIRECT SPARSE SOLVER RUNNING ON
 	1 HOST x 1 MPI RANK PER HOST x 1 THREAD PER RANK
        NUMBER OF EQUATIONS:  194265
        NUMBER OF RHS:        1
        NUMBER OF FLOPS:      3.403e+11
        SOLVER ELAPSED TIME:  18s

               CONVERGENCE CHECKS FOR EQUILIBRIUM ITERATION     1


 AVERAGE FORCE                       3.67       TIME AVG. FORCE        1.89    
 LARGEST SCALED RESIDUAL FORCE     -6.714E-03   AT NODE      38757   DOF  2
   INSTANCE: NDBR6-M-1                                                                       
  CORRESPONDING RESIDUAL FORCE     -6.714E-03
 LARGEST INCREMENT OF DISP.         1.500E-05   AT NODE         21   DOF  2
   INSTANCE: NDBR6-M-1                                                                       
 LARGEST CORRECTION TO DISP.        2.637E-08   AT NODE      61252   DOF  2
   INSTANCE: NDBR6-M-1                                                                       
          THE FORCE     EQUILIBRIUM EQUATIONS HAVE CONVERGED

 AVERAGE HEAT FLUX                   0.00       TIME AVG. HEAT FLUX   1.000E-02
 ALL HEAT FLUX RESIDUALS ARE ZERO
 ALL TEMP.    INCREMENTS ARE ZERO
 ALL CORRECTION TO TEMP.    ARE ZERO
          THERE IS ZERO HEAT FLUX EVERYWHERE

 MAXIMUM NON-PRESCRIBED INCREMENT IN TEMPERATURE IS    0.00    

 ITERATION SUMMARY FOR THE INCREMENT:   1 TOTAL ITERATIONS, OF WHICH
   0 ARE SEVERE DISCONTINUITY ITERATIONS AND  1 ARE EQUILIBRIUM ITERATIONS.

 TIME INCREMENT COMPLETED   10.0    ,  FRACTION OF STEP COMPLETED  0.350    
 STEP TIME COMPLETED        350.    ,  TOTAL TIME COMPLETED         350.    


  INCREMENT    36 STARTS. ATTEMPT NUMBER  1, TIME INCREMENT   10.0    
 
	UNSYMMETRIC NEW DIRECT SPARSE SOLVER RUNNING ON
 	1 HOST x 1 MPI RANK PER HOST x 1 THREAD PER RANK
        NUMBER OF EQUATIONS:  194265
        NUMBER OF RHS:        1
        NUMBER OF FLOPS:      3.403e+11
        SOLVER ELAPSED TIME:  19s

               CONVERGENCE CHECKS FOR EQUILIBRIUM ITERATION     1


 AVERAGE FORCE                       3.77       TIME AVG. FORCE        1.94    
 LARGEST SCALED RESIDUAL FORCE      6.294E-03   AT NODE      36432   DOF  2
   INSTANCE: NDBR6-M-1                                                                       
  CORRESPONDING RESIDUAL FORCE      6.294E-03
 LARGEST INCREMENT OF DISP.         1.500E-05   AT NODE         21   DOF  2
   INSTANCE: NDBR6-M-1                                                                       
 LARGEST CORRECTION TO DISP.        2.982E-08   AT NODE      45327   DOF  2
   INSTANCE: NDBR6-M-1                                                                       
          THE FORCE     EQUILIBRIUM EQUATIONS HAVE CONVERGED

 AVERAGE HEAT FLUX                   0.00       TIME AVG. HEAT FLUX   1.000E-02
 ALL HEAT FLUX RESIDUALS ARE ZERO
 ALL TEMP.    INCREMENTS ARE ZERO
 ALL CORRECTION TO TEMP.    ARE ZERO
          THERE IS ZERO HEAT FLUX EVERYWHERE

 MAXIMUM NON-PRESCRIBED INCREMENT IN TEMPERATURE IS    0.00    

 ITERATION SUMMARY FOR THE INCREMENT:   1 TOTAL ITERATIONS, OF WHICH
   0 ARE SEVERE DISCONTINUITY ITERATIONS AND  1 ARE EQUILIBRIUM ITERATIONS.

 TIME INCREMENT COMPLETED   10.0    ,  FRACTION OF STEP COMPLETED  0.360    
 STEP TIME COMPLETED        360.    ,  TOTAL TIME COMPLETED         360.    


  INCREMENT    37 STARTS. ATTEMPT NUMBER  1, TIME INCREMENT   10.0    
 
	UNSYMMETRIC NEW DIRECT SPARSE SOLVER RUNNING ON
 	1 HOST x 1 MPI RANK PER HOST x 1 THREAD PER RANK
        NUMBER OF EQUATIONS:  194265
        NUMBER OF RHS:        1
        NUMBER OF FLOPS:      3.403e+11
        SOLVER ELAPSED TIME:  19s

               CONVERGENCE CHECKS FOR EQUILIBRIUM ITERATION     1


 AVERAGE FORCE                       3.86       TIME AVG. FORCE        1.99    
 LARGEST SCALED RESIDUAL FORCE      1.319E-02   AT NODE      36437   DOF  2
   INSTANCE: NDBR6-M-1                                                                       
  CORRESPONDING RESIDUAL FORCE      1.319E-02
 LARGEST INCREMENT OF DISP.         1.500E-05   AT NODE         21   DOF  2
   INSTANCE: NDBR6-M-1                                                                       
 LARGEST CORRECTION TO DISP.        3.275E-08   AT NODE      61014   DOF  2
   INSTANCE: NDBR6-M-1                                                                       
          FORCE     EQUILIBRIUM NOT ACHIEVED WITHIN TOLERANCE.

 AVERAGE HEAT FLUX                   0.00       TIME AVG. HEAT FLUX   1.000E-02
 ALL HEAT FLUX RESIDUALS ARE ZERO
 ALL TEMP.    INCREMENTS ARE ZERO
 ALL CORRECTION TO TEMP.    ARE ZERO
          THERE IS ZERO HEAT FLUX EVERYWHERE
 
	UNSYMMETRIC NEW DIRECT SPARSE SOLVER RUNNING ON
 	1 HOST x 1 MPI RANK PER HOST x 1 THREAD PER RANK
        NUMBER OF EQUATIONS:  194265
        NUMBER OF RHS:        1
        NUMBER OF FLOPS:      3.403e+11
        SOLVER ELAPSED TIME:  19s

               CONVERGENCE CHECKS FOR EQUILIBRIUM ITERATION     2


 AVERAGE FORCE                       3.86       TIME AVG. FORCE        1.99    
 LARGEST SCALED RESIDUAL FORCE     -1.459E-04   AT NODE      12644   DOF  2
   INSTANCE: NDBR6-M-1                                                                       
  CORRESPONDING RESIDUAL FORCE     -1.459E-04
 LARGEST INCREMENT OF DISP.         1.500E-05   AT NODE         21   DOF  2
   INSTANCE: NDBR6-M-1                                                                       
 LARGEST CORRECTION TO DISP.        6.279E-10   AT NODE      59698   DOF  2
   INSTANCE: NDBR6-M-1                                                                       
          THE FORCE     EQUILIBRIUM EQUATIONS HAVE CONVERGED

 AVERAGE HEAT FLUX                   0.00       TIME AVG. HEAT FLUX   1.000E-02
 ALL HEAT FLUX RESIDUALS ARE ZERO
 ALL TEMP.    INCREMENTS ARE ZERO
 ALL CORRECTION TO TEMP.    ARE ZERO
          THERE IS ZERO HEAT FLUX EVERYWHERE

 MAXIMUM NON-PRESCRIBED INCREMENT IN TEMPERATURE IS    0.00    

 ITERATION SUMMARY FOR THE INCREMENT:   2 TOTAL ITERATIONS, OF WHICH
   0 ARE SEVERE DISCONTINUITY ITERATIONS AND  2 ARE EQUILIBRIUM ITERATIONS.

 TIME INCREMENT COMPLETED   10.0    ,  FRACTION OF STEP COMPLETED  0.370    
 STEP TIME COMPLETED        370.    ,  TOTAL TIME COMPLETED         370.    


  INCREMENT    38 STARTS. ATTEMPT NUMBER  1, TIME INCREMENT   10.0    
 
	UNSYMMETRIC NEW DIRECT SPARSE SOLVER RUNNING ON
 	1 HOST x 1 MPI RANK PER HOST x 1 THREAD PER RANK
        NUMBER OF EQUATIONS:  194265
        NUMBER OF RHS:        1
        NUMBER OF FLOPS:      3.403e+11
        SOLVER ELAPSED TIME:  18s

               CONVERGENCE CHECKS FOR EQUILIBRIUM ITERATION     1


 AVERAGE FORCE                       3.96       TIME AVG. FORCE        2.04    
 LARGEST SCALED RESIDUAL FORCE      9.690E-03   AT NODE      41402   DOF  2
   INSTANCE: NDBR6-M-1                                                                       
  CORRESPONDING RESIDUAL FORCE      9.690E-03
 LARGEST INCREMENT OF DISP.         1.500E-05   AT NODE         21   DOF  2
   INSTANCE: NDBR6-M-1                                                                       
 LARGEST CORRECTION TO DISP.        3.362E-08   AT NODE      60769   DOF  2
   INSTANCE: NDBR6-M-1                                                                       
          THE FORCE     EQUILIBRIUM EQUATIONS HAVE CONVERGED

 AVERAGE HEAT FLUX                   0.00       TIME AVG. HEAT FLUX   1.000E-02
 ALL HEAT FLUX RESIDUALS ARE ZERO
 ALL TEMP.    INCREMENTS ARE ZERO
 ALL CORRECTION TO TEMP.    ARE ZERO
          THERE IS ZERO HEAT FLUX EVERYWHERE

 MAXIMUM NON-PRESCRIBED INCREMENT IN TEMPERATURE IS    0.00    

 ITERATION SUMMARY FOR THE INCREMENT:   1 TOTAL ITERATIONS, OF WHICH
   0 ARE SEVERE DISCONTINUITY ITERATIONS AND  1 ARE EQUILIBRIUM ITERATIONS.

 TIME INCREMENT COMPLETED   10.0    ,  FRACTION OF STEP COMPLETED  0.380    
 STEP TIME COMPLETED        380.    ,  TOTAL TIME COMPLETED         380.    


  INCREMENT    39 STARTS. ATTEMPT NUMBER  1, TIME INCREMENT   10.0    
 
	UNSYMMETRIC NEW DIRECT SPARSE SOLVER RUNNING ON
 	1 HOST x 1 MPI RANK PER HOST x 1 THREAD PER RANK
        NUMBER OF EQUATIONS:  194265
        NUMBER OF RHS:        1
        NUMBER OF FLOPS:      3.403e+11
        SOLVER ELAPSED TIME:  18s

               CONVERGENCE CHECKS FOR EQUILIBRIUM ITERATION     1


 AVERAGE FORCE                       4.05       TIME AVG. FORCE        2.09    
[...]
 LARGEST SCALED RESIDUAL FORCE      9.349E-04   AT NODE      53795   DOF  3
   INSTANCE: NDBR6-M-1                                                                       
  CORRESPONDING RESIDUAL FORCE      9.349E-04
 LARGEST INCREMENT OF DISP.         2.705E-05   AT NODE      56982   DOF  2
   INSTANCE: NDBR6-M-1                                                                       
 LARGEST CORRECTION TO DISP.       -5.329E-09   AT NODE      14843   DOF  3
   INSTANCE: NDBR6-M-1                                                                       
          THE FORCE     EQUILIBRIUM EQUATIONS HAVE CONVERGED

 AVERAGE HEAT FLUX                   0.00       TIME AVG. HEAT FLUX   1.000E-02
 ALL HEAT FLUX RESIDUALS ARE ZERO
 ALL TEMP.    INCREMENTS ARE ZERO
 ALL CORRECTION TO TEMP.    ARE ZERO
          THERE IS ZERO HEAT FLUX EVERYWHERE

 MAXIMUM NON-PRESCRIBED INCREMENT IN TEMPERATURE IS    0.00    

 ITERATION SUMMARY FOR THE INCREMENT:   5 TOTAL ITERATIONS, OF WHICH
   0 ARE SEVERE DISCONTINUITY ITERATIONS AND  5 ARE EQUILIBRIUM ITERATIONS.

 TIME INCREMENT COMPLETED   10.0    ,  FRACTION OF STEP COMPLETED  0.970    
 STEP TIME COMPLETED        970.    ,  TOTAL TIME COMPLETED         970.    


  INCREMENT    98 STARTS. ATTEMPT NUMBER  1, TIME INCREMENT   10.0    
 
	UNSYMMETRIC NEW DIRECT SPARSE SOLVER RUNNING ON
 	1 HOST x 1 MPI RANK PER HOST x 1 THREAD PER RANK
        NUMBER OF EQUATIONS:  194265
        NUMBER OF RHS:        1
        NUMBER OF FLOPS:      3.403e+11
        SOLVER ELAPSED TIME:  18s

               CONVERGENCE CHECKS FOR EQUILIBRIUM ITERATION     1


 AVERAGE FORCE                       2.86       TIME AVG. FORCE        3.68    
 LARGEST SCALED RESIDUAL FORCE       4.80       AT NODE      17559   DOF  3
   INSTANCE: NDBR6-M-1                                                                       
  CORRESPONDING RESIDUAL FORCE       4.80    
 LARGEST INCREMENT OF DISP.         2.853E-05   AT NODE      57962   DOF  2
   INSTANCE: NDBR6-M-1                                                                       
 LARGEST CORRECTION TO DISP.        4.638E-06   AT NODE      12450   DOF  2
   INSTANCE: NDBR6-M-1                                                                       
          FORCE     EQUILIBRIUM NOT ACHIEVED WITHIN TOLERANCE.

 AVERAGE HEAT FLUX                   0.00       TIME AVG. HEAT FLUX   1.000E-02
 ALL HEAT FLUX RESIDUALS ARE ZERO
 ALL TEMP.    INCREMENTS ARE ZERO
 ALL CORRECTION TO TEMP.    ARE ZERO
          THERE IS ZERO HEAT FLUX EVERYWHERE
 
	UNSYMMETRIC NEW DIRECT SPARSE SOLVER RUNNING ON
 	1 HOST x 1 MPI RANK PER HOST x 1 THREAD PER RANK
        NUMBER OF EQUATIONS:  194265
        NUMBER OF RHS:        1
        NUMBER OF FLOPS:      3.403e+11
        SOLVER ELAPSED TIME:  18s

               CONVERGENCE CHECKS FOR EQUILIBRIUM ITERATION     2


 AVERAGE FORCE                       2.89       TIME AVG. FORCE        3.68    
 LARGEST SCALED RESIDUAL FORCE     -0.582       AT NODE      14388   DOF  3
   INSTANCE: NDBR6-M-1                                                                       
  CORRESPONDING RESIDUAL FORCE     -0.582    
 LARGEST INCREMENT OF DISP.         2.637E-05   AT NODE      57717   DOF  2
   INSTANCE: NDBR6-M-1                                                                       
 LARGEST CORRECTION TO DISP.       -2.277E-06   AT NODE      12452   DOF  2
   INSTANCE: NDBR6-M-1                                                                       
          FORCE     EQUILIBRIUM NOT ACHIEVED WITHIN TOLERANCE.

 AVERAGE HEAT FLUX                   0.00       TIME AVG. HEAT FLUX   1.000E-02
 ALL HEAT FLUX RESIDUALS ARE ZERO
 ALL TEMP.    INCREMENTS ARE ZERO
 ALL CORRECTION TO TEMP.    ARE ZERO
          THERE IS ZERO HEAT FLUX EVERYWHERE
 
	UNSYMMETRIC NEW DIRECT SPARSE SOLVER RUNNING ON
 	1 HOST x 1 MPI RANK PER HOST x 1 THREAD PER RANK
        NUMBER OF EQUATIONS:  194265
        NUMBER OF RHS:        1
        NUMBER OF FLOPS:      3.403e+11
        SOLVER ELAPSED TIME:  17s

               CONVERGENCE CHECKS FOR EQUILIBRIUM ITERATION     3


 AVERAGE FORCE                       2.89       TIME AVG. FORCE        3.68    
 LARGEST SCALED RESIDUAL FORCE      0.102       AT NODE      14984   DOF  2
   INSTANCE: NDBR6-M-1                                                                       
  CORRESPONDING RESIDUAL FORCE      0.102    
 LARGEST INCREMENT OF DISP.         2.636E-05   AT NODE      57472   DOF  2
   INSTANCE: NDBR6-M-1                                                                       
 LARGEST CORRECTION TO DISP.       -1.424E-07   AT NODE      15018   DOF  3
   INSTANCE: NDBR6-M-1                                                                       
          FORCE     EQUILIBRIUM NOT ACHIEVED WITHIN TOLERANCE.

 AVERAGE HEAT FLUX                   0.00       TIME AVG. HEAT FLUX   1.000E-02
 ALL HEAT FLUX RESIDUALS ARE ZERO
 ALL TEMP.    INCREMENTS ARE ZERO
 ALL CORRECTION TO TEMP.    ARE ZERO
          THERE IS ZERO HEAT FLUX EVERYWHERE
 
	UNSYMMETRIC NEW DIRECT SPARSE SOLVER RUNNING ON
 	1 HOST x 1 MPI RANK PER HOST x 1 THREAD PER RANK
        NUMBER OF EQUATIONS:  194265
        NUMBER OF RHS:        1
        NUMBER OF FLOPS:      3.403e+11
        SOLVER ELAPSED TIME:  18s

               CONVERGENCE CHECKS FOR EQUILIBRIUM ITERATION     4


 AVERAGE FORCE                       2.89       TIME AVG. FORCE        3.68    
 LARGEST SCALED RESIDUAL FORCE      2.126E-02   AT NODE      56741   DOF  3
   INSTANCE: NDBR6-M-1                                                                       
  CORRESPONDING RESIDUAL FORCE      2.126E-02
 LARGEST INCREMENT OF DISP.         2.635E-05   AT NODE      57472   DOF  2
   INSTANCE: NDBR6-M-1                                                                       
 LARGEST CORRECTION TO DISP.       -2.842E-08   AT NODE      12449   DOF  2
   INSTANCE: NDBR6-M-1                                                                       
          FORCE     EQUILIBRIUM NOT ACHIEVED WITHIN TOLERANCE.

 AVERAGE HEAT FLUX                   0.00       TIME AVG. HEAT FLUX   1.000E-02
 ALL HEAT FLUX RESIDUALS ARE ZERO
 ALL TEMP.    INCREMENTS ARE ZERO
 ALL CORRECTION TO TEMP.    ARE ZERO
          THERE IS ZERO HEAT FLUX EVERYWHERE
 
	UNSYMMETRIC NEW DIRECT SPARSE SOLVER RUNNING ON
 	1 HOST x 1 MPI RANK PER HOST x 1 THREAD PER RANK
        NUMBER OF EQUATIONS:  194265
        NUMBER OF RHS:        1
        NUMBER OF FLOPS:      3.403e+11
        SOLVER ELAPSED TIME:  14s

               CONVERGENCE CHECKS FOR EQUILIBRIUM ITERATION     5


 AVERAGE FORCE                       2.89       TIME AVG. FORCE        3.68    
 LARGEST SCALED RESIDUAL FORCE      6.229E-05   AT NODE      15298   DOF  2
   INSTANCE: NDBR6-M-1                                                                       
  CORRESPONDING RESIDUAL FORCE      6.229E-05
 LARGEST INCREMENT OF DISP.         2.635E-05   AT NODE      57472   DOF  2
   INSTANCE: NDBR6-M-1                                                                       
 LARGEST CORRECTION TO DISP.       -1.853E-09   AT NODE      14983   DOF  3
   INSTANCE: NDBR6-M-1                                                                       
          THE FORCE     EQUILIBRIUM EQUATIONS HAVE CONVERGED

 AVERAGE HEAT FLUX                   0.00       TIME AVG. HEAT FLUX   1.000E-02
 ALL HEAT FLUX RESIDUALS ARE ZERO
 ALL TEMP.    INCREMENTS ARE ZERO
 ALL CORRECTION TO TEMP.    ARE ZERO
          THERE IS ZERO HEAT FLUX EVERYWHERE

 MAXIMUM NON-PRESCRIBED INCREMENT IN TEMPERATURE IS    0.00    

 ITERATION SUMMARY FOR THE INCREMENT:   5 TOTAL ITERATIONS, OF WHICH
   0 ARE SEVERE DISCONTINUITY ITERATIONS AND  5 ARE EQUILIBRIUM ITERATIONS.

 TIME INCREMENT COMPLETED   10.0    ,  FRACTION OF STEP COMPLETED  0.980    
 STEP TIME COMPLETED        980.    ,  TOTAL TIME COMPLETED         980.    


  INCREMENT    99 STARTS. ATTEMPT NUMBER  1, TIME INCREMENT   10.0    
 
	UNSYMMETRIC NEW DIRECT SPARSE SOLVER RUNNING ON
 	1 HOST x 1 MPI RANK PER HOST x 1 THREAD PER RANK
        NUMBER OF EQUATIONS:  194265
        NUMBER OF RHS:        1
        NUMBER OF FLOPS:      3.403e+11
        SOLVER ELAPSED TIME:  13s

               CONVERGENCE CHECKS FOR EQUILIBRIUM ITERATION     1


 AVERAGE FORCE                       2.75       TIME AVG. FORCE        3.67    
 LARGEST SCALED RESIDUAL FORCE       2.60       AT NODE      17489   DOF  3
   INSTANCE: NDBR6-M-1                                                                       
  CORRESPONDING RESIDUAL FORCE       2.60    
 LARGEST INCREMENT OF DISP.         2.756E-05   AT NODE      58452   DOF  2
   INSTANCE: NDBR6-M-1                                                                       
 LARGEST CORRECTION TO DISP.        3.703E-06   AT NODE      12303   DOF  2
   INSTANCE: NDBR6-M-1                                                                       
          FORCE     EQUILIBRIUM NOT ACHIEVED WITHIN TOLERANCE.

 AVERAGE HEAT FLUX                   0.00       TIME AVG. HEAT FLUX   1.000E-02
 ALL HEAT FLUX RESIDUALS ARE ZERO
 ALL TEMP.    INCREMENTS ARE ZERO
 ALL CORRECTION TO TEMP.    ARE ZERO
          THERE IS ZERO HEAT FLUX EVERYWHERE
 
	UNSYMMETRIC NEW DIRECT SPARSE SOLVER RUNNING ON
 	1 HOST x 1 MPI RANK PER HOST x 1 THREAD PER RANK
        NUMBER OF EQUATIONS:  194265
        NUMBER OF RHS:        1
        NUMBER OF FLOPS:      3.403e+11
        SOLVER ELAPSED TIME:  14s

               CONVERGENCE CHECKS FOR EQUILIBRIUM ITERATION     2


 AVERAGE FORCE                       2.77       TIME AVG. FORCE        3.67    
 LARGEST SCALED RESIDUAL FORCE     -0.376       AT NODE      52079   DOF  3
   INSTANCE: NDBR6-M-1                                                                       
  CORRESPONDING RESIDUAL FORCE     -0.376    
 LARGEST INCREMENT OF DISP.         2.567E-05   AT NODE      57962   DOF  2
   INSTANCE: NDBR6-M-1                                                                       
 LARGEST CORRECTION TO DISP.       -1.952E-06   AT NODE      12450   DOF  2
   INSTANCE: NDBR6-M-1                                                                       
          FORCE     EQUILIBRIUM NOT ACHIEVED WITHIN TOLERANCE.

 AVERAGE HEAT FLUX                   0.00       TIME AVG. HEAT FLUX   1.000E-02
 ALL HEAT FLUX RESIDUALS ARE ZERO
 ALL TEMP.    INCREMENTS ARE ZERO
 ALL CORRECTION TO TEMP.    ARE ZERO
          THERE IS ZERO HEAT FLUX EVERYWHERE
 
	UNSYMMETRIC NEW DIRECT SPARSE SOLVER RUNNING ON
 	1 HOST x 1 MPI RANK PER HOST x 1 THREAD PER RANK
        NUMBER OF EQUATIONS:  194265
        NUMBER OF RHS:        1
        NUMBER OF FLOPS:      3.403e+11
        SOLVER ELAPSED TIME:  13s

               CONVERGENCE CHECKS FOR EQUILIBRIUM ITERATION     3


 AVERAGE FORCE                       2.77       TIME AVG. FORCE        3.67    
 LARGEST SCALED RESIDUAL FORCE      7.765E-02   AT NODE      57476   DOF  3
   INSTANCE: NDBR6-M-1                                                                       
  CORRESPONDING RESIDUAL FORCE      7.765E-02
 LARGEST INCREMENT OF DISP.         2.568E-05   AT NODE      57962   DOF  2
   INSTANCE: NDBR6-M-1                                                                       
 LARGEST CORRECTION TO DISP.       -1.001E-07   AT NODE      15088   DOF  3
   INSTANCE: NDBR6-M-1                                                                       
          FORCE     EQUILIBRIUM NOT ACHIEVED WITHIN TOLERANCE.

 AVERAGE HEAT FLUX                   0.00       TIME AVG. HEAT FLUX   1.000E-02
 ALL HEAT FLUX RESIDUALS ARE ZERO
 ALL TEMP.    INCREMENTS ARE ZERO
 ALL CORRECTION TO TEMP.    ARE ZERO
          THERE IS ZERO HEAT FLUX EVERYWHERE
 
	UNSYMMETRIC NEW DIRECT SPARSE SOLVER RUNNING ON
 	1 HOST x 1 MPI RANK PER HOST x 1 THREAD PER RANK
        NUMBER OF EQUATIONS:  194265
        NUMBER OF RHS:        1
        NUMBER OF FLOPS:      3.403e+11
        SOLVER ELAPSED TIME:  15s

               CONVERGENCE CHECKS FOR EQUILIBRIUM ITERATION     4


 AVERAGE FORCE                       2.77       TIME AVG. FORCE        3.67    
 LARGEST SCALED RESIDUAL FORCE      4.045E-03   AT NODE      52081   DOF  3
   INSTANCE: NDBR6-M-1                                                                       
  CORRESPONDING RESIDUAL FORCE      4.045E-03
 LARGEST INCREMENT OF DISP.         2.567E-05   AT NODE      57962   DOF  2
   INSTANCE: NDBR6-M-1                                                                       
 LARGEST CORRECTION TO DISP.       -1.821E-08   AT NODE      59922   DOF  2
   INSTANCE: NDBR6-M-1                                                                       
          THE FORCE     EQUILIBRIUM EQUATIONS HAVE CONVERGED

 AVERAGE HEAT FLUX                   0.00       TIME AVG. HEAT FLUX   1.000E-02
 ALL HEAT FLUX RESIDUALS ARE ZERO
 ALL TEMP.    INCREMENTS ARE ZERO
 ALL CORRECTION TO TEMP.    ARE ZERO
          THERE IS ZERO HEAT FLUX EVERYWHERE

 MAXIMUM NON-PRESCRIBED INCREMENT IN TEMPERATURE IS    0.00    

 ITERATION SUMMARY FOR THE INCREMENT:   4 TOTAL ITERATIONS, OF WHICH
   0 ARE SEVERE DISCONTINUITY ITERATIONS AND  4 ARE EQUILIBRIUM ITERATIONS.

 TIME INCREMENT COMPLETED   10.0    ,  FRACTION OF STEP COMPLETED  0.990    
 STEP TIME COMPLETED        990.    ,  TOTAL TIME COMPLETED         990.    


  INCREMENT   100 STARTS. ATTEMPT NUMBER  1, TIME INCREMENT   10.0    
 
	UNSYMMETRIC NEW DIRECT SPARSE SOLVER RUNNING ON
 	1 HOST x 1 MPI RANK PER HOST x 1 THREAD PER RANK
        NUMBER OF EQUATIONS:  194265
        NUMBER OF RHS:        1
        NUMBER OF FLOPS:      3.403e+11
        SOLVER ELAPSED TIME:  17s

               CONVERGENCE CHECKS FOR EQUILIBRIUM ITERATION     1


 AVERAGE FORCE                       2.64       TIME AVG. FORCE        3.66    
 LARGEST SCALED RESIDUAL FORCE      -2.40       AT NODE       9374   DOF  3
   INSTANCE: NDBR6-M-1                                                                       
  CORRESPONDING RESIDUAL FORCE      -2.40    
 LARGEST INCREMENT OF DISP.         2.661E-05   AT NODE      58697   DOF  2
   INSTANCE: NDBR6-M-1                                                                       
 LARGEST CORRECTION TO DISP.       -3.281E-06   AT NODE      12512   DOF  2
   INSTANCE: NDBR6-M-1                                                                       
          FORCE     EQUILIBRIUM NOT ACHIEVED WITHIN TOLERANCE.

 AVERAGE HEAT FLUX                   0.00       TIME AVG. HEAT FLUX   1.000E-02
 ALL HEAT FLUX RESIDUALS ARE ZERO
 ALL TEMP.    INCREMENTS ARE ZERO
 ALL CORRECTION TO TEMP.    ARE ZERO
          THERE IS ZERO HEAT FLUX EVERYWHERE
 
	UNSYMMETRIC NEW DIRECT SPARSE SOLVER RUNNING ON
 	1 HOST x 1 MPI RANK PER HOST x 1 THREAD PER RANK
        NUMBER OF EQUATIONS:  194265
        NUMBER OF RHS:        1
        NUMBER OF FLOPS:      3.403e+11
        SOLVER ELAPSED TIME:  18s

               CONVERGENCE CHECKS FOR EQUILIBRIUM ITERATION     2


 AVERAGE FORCE                       2.66       TIME AVG. FORCE        3.66    
 LARGEST SCALED RESIDUAL FORCE      0.508       AT NODE      11932   DOF  3
   INSTANCE: NDBR6-M-1                                                                       
  CORRESPONDING RESIDUAL FORCE      0.508    
 LARGEST INCREMENT OF DISP.         2.497E-05   AT NODE      58452   DOF  2
   INSTANCE: NDBR6-M-1                                                                       
 LARGEST CORRECTION TO DISP.       -1.695E-06   AT NODE      59677   DOF  2
   INSTANCE: NDBR6-M-1                                                                       
          FORCE     EQUILIBRIUM NOT ACHIEVED WITHIN TOLERANCE.

 AVERAGE HEAT FLUX                   0.00       TIME AVG. HEAT FLUX   1.000E-02
 ALL HEAT FLUX RESIDUALS ARE ZERO
 ALL TEMP.    INCREMENTS ARE ZERO
 ALL CORRECTION TO TEMP.    ARE ZERO
          THERE IS ZERO HEAT FLUX EVERYWHERE
 
	UNSYMMETRIC NEW DIRECT SPARSE SOLVER RUNNING ON
 	1 HOST x 1 MPI RANK PER HOST x 1 THREAD PER RANK
        NUMBER OF EQUATIONS:  194265
        NUMBER OF RHS:        1
        NUMBER OF FLOPS:      3.403e+11
        SOLVER ELAPSED TIME:  18s

               CONVERGENCE CHECKS FOR EQUILIBRIUM ITERATION     3


 AVERAGE FORCE                       2.66       TIME AVG. FORCE        3.66    
 LARGEST SCALED RESIDUAL FORCE     -7.004E-02   AT NODE      11859   DOF  2
   INSTANCE: NDBR6-M-1                                                                       
  CORRESPONDING RESIDUAL FORCE     -7.004E-02
 LARGEST INCREMENT OF DISP.         2.498E-05   AT NODE      58452   DOF  2
   INSTANCE: NDBR6-M-1                                                                       
 LARGEST CORRECTION TO DISP.        9.105E-08   AT NODE      11932   DOF  3
   INSTANCE: NDBR6-M-1                                                                       
          FORCE     EQUILIBRIUM NOT ACHIEVED WITHIN TOLERANCE.

 AVERAGE HEAT FLUX                   0.00       TIME AVG. HEAT FLUX   1.000E-02
 ALL HEAT FLUX RESIDUALS ARE ZERO
 ALL TEMP.    INCREMENTS ARE ZERO
 ALL CORRECTION TO TEMP.    ARE ZERO
          THERE IS ZERO HEAT FLUX EVERYWHERE
 
	UNSYMMETRIC NEW DIRECT SPARSE SOLVER RUNNING ON
 	1 HOST x 1 MPI RANK PER HOST x 1 THREAD PER RANK
        NUMBER OF EQUATIONS:  194265
        NUMBER OF RHS:        1
        NUMBER OF FLOPS:      3.403e+11
        SOLVER ELAPSED TIME:  18s

               CONVERGENCE CHECKS FOR EQUILIBRIUM ITERATION     4


 AVERAGE FORCE                       2.66       TIME AVG. FORCE        3.66    
 LARGEST SCALED RESIDUAL FORCE      5.269E-03   AT NODE      44218   DOF  3
   INSTANCE: NDBR6-M-1                                                                       
  CORRESPONDING RESIDUAL FORCE      5.269E-03
 LARGEST INCREMENT OF DISP.         2.497E-05   AT NODE      58452   DOF  2
   INSTANCE: NDBR6-M-1                                                                       
 LARGEST CORRECTION TO DISP.        1.374E-08   AT NODE      11932   DOF  3
   INSTANCE: NDBR6-M-1                                                                       
          THE FORCE     EQUILIBRIUM EQUATIONS HAVE CONVERGED

 AVERAGE HEAT FLUX                   0.00       TIME AVG. HEAT FLUX   1.000E-02
 ALL HEAT FLUX RESIDUALS ARE ZERO
 ALL TEMP.    INCREMENTS ARE ZERO
 ALL CORRECTION TO TEMP.    ARE ZERO
          THERE IS ZERO HEAT FLUX EVERYWHERE

 MAXIMUM NON-PRESCRIBED INCREMENT IN TEMPERATURE IS    0.00    

 ITERATION SUMMARY FOR THE INCREMENT:   4 TOTAL ITERATIONS, OF WHICH
   0 ARE SEVERE DISCONTINUITY ITERATIONS AND  4 ARE EQUILIBRIUM ITERATIONS.

 TIME INCREMENT COMPLETED   10.0    ,  FRACTION OF STEP COMPLETED   1.00    
 STEP TIME COMPLETED       1.000E+03,  TOTAL TIME COMPLETED        1.000E+03


          THE ANALYSIS HAS BEEN COMPLETED



     ANALYSIS SUMMARY:
     TOTAL OF        100  INCREMENTS
                       0  CUTBACKS IN AUTOMATIC INCREMENTATION
                     223  ITERATIONS INCLUDING CONTACT ITERATIONS IF PRESENT
                     223  PASSES THROUGH THE EQUATION SOLVER OF WHICH 
                     223  INVOLVE MATRIX DECOMPOSITION, INCLUDING
                       0  DECOMPOSITION(S) OF THE MASS MATRIX
                       1  REORDERING OF EQUATIONS TO MINIMIZE WAVEFRONT
                       0  ADDITIONAL RESIDUAL EVALUATIONS FOR LINE SEARCHES
                       0  ADDITIONAL OPERATOR EVALUATIONS FOR LINE SEARCHES
                       5  WARNING MESSAGES DURING USER INPUT PROCESSING
                       0  WARNING MESSAGES DURING ANALYSIS
                       0  ANALYSIS WARNINGS ARE NUMERICAL PROBLEM MESSAGES
                       0  ANALYSIS WARNINGS ARE NEGATIVE EIGENVALUE MESSAGES
                       0  ERROR MESSAGES



     JOB TIME SUMMARY
       USER TIME (SEC)      =     2.57E+03
       SYSTEM TIME (SEC)    =      43.    
       TOTAL CPU TIME (SEC) =     2.61E+03
       WALLCLOCK TIME (SEC) =         6556
       MEMORY PEAK (GB)     =            1
