*Heading
**
*Part, name=halfHub
*Node, nset=halfHub
      1,           9.,   39.2604332,           0.
      2,          -6.,   39.2604332,           0.
      3,          -6.,  -52.4392204,   14.5237989
      4,           9.,  -52.4392204,   14.5237989
      5,          -6.,  -54.7395668,           0.
      6,           9.,  -54.7395668,           0.
      7,          -6.,   34.2604332,           0.
      8,          -6.,  -47.6839409,    12.978714
      9,           9.,  -47.6839409,    12.978714
     10,           9.,   34.2604332,           0.
     11,           9.,  -49.7395668,           0.
     12,          -6.,  -49.7395668,           0.
     13,         -66.,   112.597359,           0.
     14,         -71.,   112.597359,           0.
     15,         -71.,   172.260437,           0.
     16,         -66.,   172.260437,           0.
     17,         -71.,  -128.076492,           0.
     18,         -71.,  -187.739563,           0.
     19,         -66.,  -187.739563,           0.
     20,         -66.,  -128.076492,           0.
** ... 1968 like lines cut
*Element, type=C3D8I, elset=halfHub
1, 10,  7, 93, 94,  1,  2, 76, 87
2, 94, 93, 92, 95, 87, 76, 77, 86
3, 95, 92, 91, 96, 86, 77, 78, 85
4, 96, 91, 90, 97, 85, 78, 79, 84
5, 97, 90, 89, 98, 84, 79, 80, 83
6, 98, 89, 88, 99, 83, 80, 81, 82
7, 99, 88,  8,  9, 82, 81,  3,  4
8,  9,  8, 12, 11,  4,  3,  5,  6
*Element, type=C3D8R, elset=halfHub
  9, 137, 175, 631, 565,  13,  14, 100, 105
 10, 565, 631, 632, 566, 105, 100, 101, 104
 11, 566, 632, 633, 567, 104, 101, 102, 103
 12, 567, 633, 173, 112, 103, 102,  15,  16
 13, 136, 176, 634, 568, 137, 175, 631, 565
 14, 568, 634, 635, 569, 565, 631, 632, 566
 15, 569, 635, 636, 570, 566, 632, 633, 567
 16, 570, 636, 172, 113, 567, 633, 173, 112
 17, 135, 177, 637, 571, 136, 176, 634, 568
 18, 571, 637, 638, 572, 568, 634, 635, 569
 19, 572, 638, 639, 573, 569, 635, 636, 570
 20, 573, 639, 171, 114, 570, 636, 172, 113
 21, 134, 178, 640, 574, 135, 177, 637, 571
 22, 574, 640, 641, 575, 571, 637, 638, 572
 23, 575, 641, 642, 576, 572, 638, 639, 573
 24, 576, 642, 170, 115, 573, 639, 171, 114
 25, 133, 179, 643, 577, 134, 178, 640, 574
 26, 577, 643, 644, 578, 574, 640, 641, 575
 27, 578, 644, 645, 579, 575, 641, 642, 576
 28, 579, 645, 169, 116, 576, 642, 170, 115
** ... 1359 like lines cut
*Solid Section, elset=halfHub, material=steel
*End Part
**  
*Part, name=halfNut
*Node, nset=halfNut
      1,          -5.,  -22.3230648,           0.
      2,          -5.,  -16.8890648,           0.
      3,          -5.,  -3.88906503,           0.
      4,          -5.,   1.54493499,           0.
      5,           5.,  -16.8890648,           0.
      6,           5.,  -3.88906503,           0.
      7,           5.,  -22.3230648,           0.
      8,           5.,   1.54493499,           0.
      9,   2.53487539,   4.04469156,  -1.47171164e-10
     10,  -2.53487539,   4.04469156,  -1.47171164e-10
     11,   2.53487539,  -3.17218661,        -12.5
     12,  -2.53487539,  -3.17218661,        -12.5
     13,   2.53487539,  -17.6059437,        -12.5
     14,  -2.53487539,  -17.6059437,        -12.5
     15,  -2.53487539,  -24.8228226,  -1.47029056e-10
     16,   2.53487539,  -24.8228226,  -1.47029056e-10
     17,          -5.,  -19.6060658,           0.
     18,          -5.,  -16.4970665,  -2.22313094
     19,          -5.,  -15.3683538,  -4.17811966
     20,          -5.,  -13.6390648,  -5.62916517
** ... 1699 like lines cut
*Element, type=C3D10, elset=halfNut
  1,  200,  201,  185,  202,  283,  282,  281,  285,  284,  286
  2,  200,  185,  201,  193,  281,  282,  283,  288,  287,  289
  3,  200,  192,  203,  202,  292,  291,  290,  285,  293,  294
  4,  204,  192,  186,  203,  297,  296,  295,  298,  291,  299
  5,  193,  192,  186,  204,  301,  296,  300,  302,  297,  295
  6,  205,  206,  179,  207,  305,  304,  303,  307,  306,  308
  7,  206,  205,  208,  107,  305,  310,  309,  312,  311,  313
  8,  206,   34,  207,  107,  315,  314,  306,  312,  316,  317
  9,  209,  206,  205,  208,  319,  305,  318,  320,  309,  310
 10,  206,  204,  208,  209,  322,  321,  309,  319,  323,  320
 11,  206,  204,  187,   34,  322,  325,  324,  315,  326,  327
 12,  206,  193,  210,  194,  330,  329,  328,  332,  331,  333
 13,  200,  209,  206,  210,  335,  319,  334,  337,  336,  328
 14,  211,  189,  196,  105,  340,  339,  338,  342,  341,  343
 15,  200,  193,  206,  204,  288,  330,  334,  344,  302,  322
 16,  212,  213,  175,  214,  347,  346,  345,  349,  348,  350
 17,  215,   67,  177,  178,  353,  352,  351,  355,  354,  356
 18,  212,  216,  217,  218,  359,  358,  357,  361,  360,  362
 19,  216,  212,  215,  218,  359,  364,  363,  360,  361,  365
 20,  215,  175,  162,  214,  368,  367,  366,  369,  350,  370
** ... 943 like lines cut
*Solid Section, elset=halfNut, material=steel
*End Part
**  
*Part, name=halfRim
*Node, nset=halfRim
      1,  -109.572334,  -255.248672,           0.
      2,  -115.572334,  -255.248672,           0.
      3,  -105.044655,  -240.213593,           0.
      4,  -102.992538,  -245.851746,           0.
      5,  -115.572334,   239.769547,           0.
      6,  -105.044655,   224.734451,           0.
      7,  -102.992538,    230.37262,           0.
      8,  -109.572334,   239.769547,           0.
      9,   -88.619339,  -240.620331,           0.
     10,   -88.619339,    225.14119,           0.
     11,   -90.582016,  -234.949615,  1.78494428e-08
     12,   -90.582016,    219.47049,           0.
     13,  -81.4430466,   -231.44516,  3.85313648e-08
     14,  -81.4430466,   215.966034,           0.
     15,  -87.3200684,  -230.779099,  1.75217298e-08
     16,  -87.3200684,   215.299957,           0.
     17,  -80.1437759,  -221.603928,           0.
     18,  -78.1810989,  -227.274643,           0.
     19,  -80.1437759,   206.124802,           0.
     20,  -78.1810989,   211.795502,           0.
** ... 5081 like lines cut
*Element, type=C3D8I, elset=halfRim
 1,  172,  208, 1852, 1817,    1,    2,   99,  100
 2, 1817, 1852,  207,  103,  100,   99,    3,    4
 3,  171,  209, 1853, 1818,  172,  208, 1852, 1817
 4, 1818, 1853,  206,  104, 1817, 1852,  207,  103
 5,  170,  210, 1854, 1819,  171,  209, 1853, 1818
 6, 1819, 1854,  205,  105, 1818, 1853,  206,  104
 7,  169,  211, 1855, 1820,  170,  210, 1854, 1819
 8, 1820, 1855,  204,  106, 1819, 1854,  205,  105
 9,  168,  212, 1856, 1821,  169,  211, 1855, 1820
10, 1821, 1856,  203,  107, 1820, 1855,  204,  106
11,  167,  213, 1857, 1822,  168,  212, 1856, 1821
12, 1822, 1857,  202,  108, 1821, 1856,  203,  107
13,  166,  214, 1858, 1823,  167,  213, 1857, 1822
14, 1823, 1858,  201,  109, 1822, 1857,  202,  108
15,  165,  215, 1859, 1824,  166,  214, 1858, 1823
16, 1824, 1859,  200,  110, 1823, 1858,  201,  109
17,  164,  216, 1860, 1825,  165,  215, 1859, 1824
18, 1825, 1860,  199,  111, 1824, 1859,  200,  110
19,  163,  217, 1861, 1826,  164,  216, 1860, 1825
20, 1826, 1861,  198,  112, 1825, 1860,  199,  111
** ... 916 like lines cut
*Element, type=C3D8R, elset=halfRim
 937, 1275, 1274, 2766, 2657, 3729, 3730, 4271, 4162
 938, 1343, 2729, 1267,   65, 3774, 4234, 3822, 1394
 939, 2727, 3108, 1270, 1269, 4232, 4613, 3819, 3820
 940, 2811, 1277, 1276, 2659, 4316, 3727, 3728, 4164
 941, 1276, 1275, 2657, 2658, 3728, 3729, 4162, 4163
 942, 2729, 2765, 3123, 2810, 4234, 4270, 4628, 4315
 943, 2809, 2659, 1276, 2658, 4314, 4164, 3728, 4163
 944,   67, 1277, 2811, 2661, 3726, 3727, 4316, 4166
 945, 1278,   67, 2661, 2662, 3725, 3726, 4166, 4167
 946, 2905, 2846, 2666, 2665, 4410, 4351, 4171, 4170
 947, 2735, 1282, 1281, 2666, 4240, 3721, 3722, 4171
 948, 2730, 1288, 1287, 2731, 4235, 3733, 3734, 4236
 949,   68, 1282, 2735, 1283, 1391, 3721, 4240, 3738
 950, 1279, 2667, 2665, 1280, 3724, 4172, 4170, 3723
 951, 2729, 1343, 1342, 2765, 4234, 3774, 3775, 4270
 952, 1299, 1298, 2753, 2724, 3764, 3765, 4258, 4229
 953, 2816, 1358, 1357, 2671, 4321, 3804, 3803, 4176
 954, 1340, 2670, 2660, 1341, 3777, 4175, 4165, 3776
 955, 2814, 2671, 1357, 2669, 4319, 4176, 3803, 4174
 956, 2898, 2670, 1340, 2672, 4403, 4175, 3777, 4177
** ... 1982 like lines cut
*Solid Section, elset=halfRim, material=steel
*End Part
**  
*Part, name=nut
*Node, nset=nut
      1,   2.53487539,  -3.17218661,         12.5
      2,   2.53487539,   4.04469156,  -1.47171164e-10
      3,  -2.53487539,   4.04469156,  -1.47171164e-10
      4,  -2.53487539,  -3.17218661,         12.5
      5,   2.53487539,  -17.6059437,         12.5
      6,  -2.53487539,  -17.6059437,         12.5
      7,   2.53487539,  -24.8228226,  -1.47029056e-10
      8,  -2.53487539,  -24.8228226,  -1.47029056e-10
      9,   2.53487539,  -17.6059437,        -12.5
     10,  -2.53487539,  -17.6059437,        -12.5
     11,   2.53487539,  -3.17218661,        -12.5
     12,  -2.53487539,  -3.17218661,        -12.5
     13,           5.,   1.54493499,           0.
     14,          -5.,   1.54493499,           0.
     15,           5.,  -3.88906503,           0.
     16,          -5.,  -3.88906503,           0.
     17,   3.38904023,  -3.00611091,    12.212348
     18,   4.19131708,  -2.45778728,   11.2626238
     19,   4.81179142,  -1.12817633,   8.95967007
     20,   4.93474913,    0.3411493,   6.41472387
** ... 2541 like lines cut
*Element, type=C3D10, elset=nut
   1,  303,  304,  305,  306,  418,  417,  416,  420,  419,  421
   2,  307,  308,  309,  310,  424,  423,  422,  426,  425,  427
   3,  307,  308,  146,  221,  424,  429,  428,  431,  430,  432
   4,  307,  311,  309,  227,  434,  433,  422,  436,  435,  437
   5,  307,  311,  227,  230,  434,  435,  436,  439,  438,  440
   6,  312,   10,  258,  244,  443,  442,  441,  445,  444,  446
   7,  290,  313,  314,  315,  449,  448,  447,  451,  450,  452
   8,   48,   49,   68,  316,  455,  454,  453,  457,  456,  458
   9,  316,  317,  318,  319,  461,  460,  459,  463,  462,  464
  10,  317,  320,  316,  318,  466,  465,  461,  460,  467,  459
  11,  316,  169,  121,  320,  470,  469,  468,  465,  471,  472
  12,  314,  321,  315,  313,  474,  473,  452,  448,  475,  450
  13,  316,   49,  121,  120,  456,  476,  468,  478,  477,  479
  14,  316,  318,  228,  319,  459,  481,  480,  463,  464,  482
  15,  120,  169,  121,  316,  483,  469,  479,  478,  470,  468
  16,  234,  153,  152,  322,  486,  485,  484,  488,  487,  489
  17,  323,  152,   72,  151,  492,  491,  490,  494,  493,  495
  18,  235,  324,  325,  323,  498,  497,  496,  500,  499,  501
  19,  326,  168,  327,  298,  504,  503,  502,  506,  505,  507
  20,  324,   72,  236,  151,  510,  509,  508,  511,  495,  512
** ... 1409 like lines cut
*Solid Section, elset=nut, material=steel
*End Part
**  
*Assembly, name=Assembly
**  
*Instance, name=halfHub-1, part=halfHub
*End Instance
**  
*Instance, name=halfRim-1, part=halfRim
*End Instance
**  
*Instance, name=nut-1, part=nut
11.005, -61.6354170251708, 46.7057255881117
*End Instance
**  
*Instance, name=nut-2, part=nut
11.005, 27.204152312563, 75.5714514707904
*End Instance
**  
*Instance, name=halfNut-1, part=halfNut
11.005, 61.3318957091855, 0.
11.005, 61.3318957091855, 0., 12.005, 61.3318957091855, 0., 180.
*End Instance
**  
*Node, nset=refPoint
 1, -300., 0., 0.
*Nset, nset=zsymm, instance=halfHub-1
    1,    2,    5,    6,    7,   10,   11,   12,   13,   14,   15,   16,   17,   18,   19,   20
   25,   26,   27,   29,   30,   31,   32,   34,   35,   36,   37,   38,   41,   42,   43,   44
   46,   48,   49,   50,   52,   53,   55,   56,   58,   59,   61,   62,  100,  101,  102,  103
  104,  105,  106,  107,  108,  109,  110,  111,  263,  264,  265,  266,  267,  268,  269,  270
  292,  293,  294,  295,  296,  297,  404,  405,  406,  407,  408,  415,  416,  417,  418,  419
  420,  421,  422,  423,  430,  435,  437,  438,  443,  444,  445,  446,  447,  453,  454,  455
  456,  457,  458,  499,  500,  501,  502,  503,  504,  505,  506,  507,  508,  509,  510,  511
  512,  513,  514,  515,  516,  517,  518,  519,  520,  521,  522,  523,  524,  525,  526,  527
  528,  881,  882,  883,  884,  885,  886,  887,  888,  889,  890,  905,  931,  932,  933,  934
  935, 1349, 1350, 1351, 1352, 1353, 1354, 1355, 1356, 1357, 1358, 1359, 1360, 1361, 1362
*Nset, nset=zsymm, instance=halfRim-1
    1,    2,    3,    4,    5,    6,    7,    8,    9,   10,   11,   12,   13,   14,   15,   16
   17,   18,   19,   20,   21,   22,   23,   24,   25,   26,   27,   28,   29,   30,   31,   32
   33,   34,   35,   36,   37,   38,   39,   40,   41,   42,   43,   44,   45,   46,   47,   48
   49,   50,   51,   52,   53,   54,   55,   56,   57,   58,   59,   60,   61,   62,   63,   64
   65,   66,   68,   69,   70,   71,   74,   75,   76,   77,   78,   79,   83,   84,   85,   86
   87,   88,   89,   90,   91,   92,   93,   94,   95,   96,   97,   98,   99,  100,  101,  102
  313,  349,  350,  386,  387,  388,  389,  390,  461,  462,  463,  464,  465,  466,  467,  468
  539,  540,  576,  577,  613,  614,  615,  616,  617,  618,  619,  620,  761,  762,  763,  764
  835,  836,  872,  873,  909,  945,  946,  982, 1053, 1054, 1055, 1056, 1267, 1268, 1269, 1270
 1271, 1272, 1283, 1284, 1285, 1286, 1287, 1288, 1289, 1325, 1326, 1327, 1328, 1390, 1391, 1392
 1393, 1394, 1395, 1396, 1397, 1398, 1399, 1400, 1401, 1417, 1418, 1419, 1420, 1456, 1457, 1458
 1459, 1460, 1461, 1462, 1519, 1520, 1521, 1522, 1523, 1524, 1525, 1526, 1527, 1808, 1809, 1810
 1811, 1812, 1813, 1814, 1815, 1816, 3732, 3733, 3734, 3735, 3736, 3737, 3738, 3813, 3814, 3815
 3816, 3817, 3818, 3819, 3820, 3821, 3822, 3823, 3824, 3825, 3826, 3827, 3828, 3829, 3830, 3831
 3832, 3833, 3834, 3835, 3836, 3837, 3838, 3839, 3840, 3841, 3842, 3843, 3844, 3845, 3846
*Nset, nset=zsymm, instance=halfNut-1
    1,    2,    3,    4,    5,    6,    7,    8,    9,   10,   15,   16,   17,   26,   35,   36
   45,   46,   47,   56,   57,   58,   59,   90,   98,   99,  139,  140,  141,  142,  143,  144
  179,  180,  181,  182,  183,  536,  547,  572,  700,  702,  704,  803,  867,  869,  875,  876
  877,  914,  952,  971,  975,  976,  978, 1001, 1006, 1022, 1042, 1044, 1046, 1077, 1078, 1238
 1239, 1240, 1350, 1353, 1354, 1355, 1357, 1359, 1365, 1391, 1392, 1401, 1469, 1474, 1480, 1498
 1506, 1507, 1508, 1511, 1514, 1522, 1523, 1534, 1582, 1583, 1584, 1591, 1603, 1611, 1612, 1613
 1614, 1618, 1621, 1622, 1628, 1629, 1657, 1659, 1661, 1663, 1664, 1665, 1666, 1667, 1673, 1708
 1709, 1710, 1711, 1713
*Elset, elset=rim-nuts_S1, instance=halfRim-1, generate
  937,  1523,     1
*Surface, type=ELEMENT, name=rim-nuts
 rim-nuts_S1, S1
*Elset, elset=rim-hub_S2, instance=halfRim-1, generate
 1524,  2110,     1
*Surface, type=ELEMENT, name=rim-hub
 rim-hub_S2, S2
*Elset, elset=hub-rim_S5, instance=halfHub-1, generate
 285,  307,    1
*Elset, elset=hub-rim_S1, instance=halfHub-1, generate
 496,  624,    1
*Surface, type=ELEMENT, name=hub-rim
 hub-rim_S5, S5
 hub-rim_S1, S1
*Elset, elset=hubtie1_S3, instance=halfHub-1
 1340, 1341, 1346, 1348, 1349, 1354, 1356, 1357, 1362, 1364, 1365, 1370, 1372, 1373, 1378, 1380
 1381, 1386
*Elset, elset=hubtie1_S5, instance=halfHub-1
 1343, 1345, 1351, 1353, 1359, 1361, 1367, 1369, 1375, 1377, 1383, 1385
*Elset, elset=hubtie1_S6, instance=halfHub-1
 1343, 1344, 1345, 1351, 1352, 1353, 1359, 1360, 1361, 1367, 1368, 1369, 1375, 1376, 1377, 1383
 1384, 1385
*Elset, elset=hubtie1_S4, instance=halfHub-1
 1346, 1347, 1354, 1355, 1362, 1363, 1370, 1371, 1378, 1379, 1386, 1387
*Surface, type=ELEMENT, name=hubtie1
hubtie1_S3, S3
hubtie1_S5, S5
hubtie1_S6, S6
hubtie1_S4, S4
*Elset, elset=hubtie2_S3, instance=halfHub-1
 1292, 1293, 1300, 1301, 1308, 1309, 1316, 1317, 1324, 1325, 1332, 1333
*Elset, elset=hubtie2_S4, instance=halfHub-1
 1292, 1293, 1295, 1296, 1300, 1301, 1303, 1304, 1308, 1309, 1311, 1312, 1316, 1317, 1319, 1320
 1324, 1325, 1327, 1328, 1332, 1333, 1335, 1336
*Elset, elset=hubtie2_S5, instance=halfHub-1
 1294, 1297, 1299, 1302, 1305, 1307, 1310, 1313, 1315, 1318, 1321, 1323, 1326, 1329, 1331, 1334
 1337, 1339
*Elset, elset=hubtie2_S6, instance=halfHub-1, generate
 1297,  1337,     8
*Surface, type=ELEMENT, name=hubtie2
hubtie2_S3, S3
hubtie2_S4, S4
hubtie2_S6, S6
hubtie2_S5, S5
*Elset, elset=hubtie3_S5, instance=halfHub-1
 392, 393, 394, 400, 401, 402, 408, 409, 410, 416, 417, 418, 424, 425, 426, 432
 433, 434
*Elset, elset=hubtie3_S3, instance=halfHub-1, generate
 395,  435,    8
*Elset, elset=hubtie3_S4, instance=halfHub-1
 398, 399, 406, 407, 414, 415, 422, 423, 430, 431, 438, 439
*Surface, type=ELEMENT, name=hubtie3
hubtie3_S5, S5
hubtie3_S3, S3
hubtie3_S4, S4
*Elset, elset=nut1-rim_S3, instance=nut-1
   17,   21,   84,   97,   98,  149,  151,  186,  208,  367,  485,  517,  534,  590,  617,  634
  736,  762,  815,  821,  834,  837,  847,  848,  858,  863,  868,  869,  872,  909,  927,  931
  933,  936,  950,  955,  956,  967,  973,  980,  981,  985,  986, 1037, 1048, 1076, 1079, 1108
 1118, 1155, 1159, 1167, 1177, 1263, 1274, 1277, 1311, 1318, 1360, 1383, 1385, 1387, 1394, 1405
 1413,
*Elset, elset=nut1-rim_S4, instance=nut-1
   31,   53,  147,  148,  156,  160,  207,  340,  388,  828,  867, 1110, 1112, 1144, 1162, 1163
 1284, 1300, 1317, 1340, 1346
*Elset, elset=nut1-rim_S1, instance=nut-1
   81,  141,  516,  520,  870,  919,  952,  961,  991,  992, 1256, 1257, 1368, 1379, 1401
*Elset, elset=nut1-rim_S2, instance=nut-1
  265,  779,  914,  929,  935,  963,  970,  982,  990,  993, 1168, 1180, 1195, 1222, 1273, 1287
 1333, 1410
*Surface, type=ELEMENT, name=nut1-rim
nut1-rim_S3, S3
nut1-rim_S4, S4
nut1-rim_S2, S2
nut1-rim_S1, S1
*Elset, elset=nut1tie_S3, instance=nut-1
   56,   80,  291,  354,  391,  402,  409,  419,  501,  540,  589,  595,  599,  615,  622,  628
  630,  658,  660,  693,  714,  720,  721,  734,  753,  761,  786,  788,  807,  811,  818,  819
  833,  838,  840,  846,  859,  910,  934,  962,  966,  975,  987,  995,  997, 1011, 1040, 1085
 1092, 1106, 1115, 1123, 1127, 1178, 1203, 1226, 1234, 1278, 1286, 1356, 1367
*Elset, elset=nut1tie_S4, instance=nut-1
 202, 558
*Elset, elset=nut1tie_S1, instance=nut-1
 716, 809, 897
*Surface, type=ELEMENT, name=nut1tie
nut1tie_S3, S3
nut1tie_S4, S4
nut1tie_S1, S1
*Elset, elset=nut2-rim_S3, instance=nut-2
   17,   21,   84,   97,   98,  149,  151,  186,  208,  367,  485,  517,  534,  590,  617,  634
  736,  762,  815,  821,  834,  837,  847,  848,  858,  863,  868,  869,  872,  909,  927,  931
  933,  936,  950,  955,  956,  967,  973,  980,  981,  985,  986, 1037, 1048, 1076, 1079, 1108
 1118, 1155, 1159, 1167, 1177, 1263, 1274, 1277, 1311, 1318, 1360, 1383, 1385, 1387, 1394, 1405
 1413,
*Elset, elset=nut2-rim_S4, instance=nut-2
   31,   53,  147,  148,  156,  160,  207,  340,  388,  828,  867, 1110, 1112, 1144, 1162, 1163
 1284, 1300, 1317, 1340, 1346
*Elset, elset=nut2-rim_S1, instance=nut-2
   81,  141,  516,  520,  870,  919,  952,  961,  991,  992, 1256, 1257, 1368, 1379, 1401
*Elset, elset=nut2-rim_S2, instance=nut-2
  265,  779,  914,  929,  935,  963,  970,  982,  990,  993, 1168, 1180, 1195, 1222, 1273, 1287
 1333, 1410
*Surface, type=ELEMENT, name=nut2-rim
nut2-rim_S3, S3
nut2-rim_S4, S4
nut2-rim_S2, S2
nut2-rim_S1, S1
*Elset, elset=nut2tie_S3, instance=nut-2
   56,   80,  291,  354,  391,  402,  409,  419,  501,  540,  589,  595,  599,  615,  622,  628
  630,  658,  660,  693,  714,  720,  721,  734,  753,  761,  786,  788,  807,  811,  818,  819
  833,  838,  840,  846,  859,  910,  934,  962,  966,  975,  987,  995,  997, 1011, 1040, 1085
 1092, 1106, 1115, 1123, 1127, 1178, 1203, 1226, 1234, 1278, 1286, 1356, 1367
*Elset, elset=nut2tie_S4, instance=nut-2
 202, 558
*Elset, elset=nut2tie_S1, instance=nut-2
 716, 809, 897
*Surface, type=ELEMENT, name=nut2tie
nut2tie_S3, S3
nut2tie_S4, S4
nut2tie_S1, S1
*Elset, elset=nut3-rim_S3, instance=halfNut-1
  32,  34,  37,  58, 101, 118, 170, 172, 175, 256, 457, 464, 497, 506, 523, 524
 528, 533, 534, 573, 576, 590, 595, 604, 606, 610, 633, 642, 656, 696, 699, 709
 803, 808, 870, 884, 903, 909, 934, 935, 938, 939, 940, 941, 944, 945, 948, 952
 956, 959, 963
*Elset, elset=nut3-rim_S1, instance=halfNut-1
 536, 593, 609, 612, 614, 623, 712, 714, 943
*Elset, elset=nut3-rim_S4, instance=halfNut-1
 138, 430, 467, 525, 588, 694, 706
*Elset, elset=nut3-rim_S2, instance=halfNut-1
 591, 698, 953, 955
*Surface, type=ELEMENT, name=nut3-rim
nut3-rim_S3, S3
nut3-rim_S1, S1
nut3-rim_S4, S4
nut3-rim_S2, S2
*Elset, elset=nut3tie_S3, instance=halfNut-1
 154, 158, 165, 274, 303, 309, 312, 319, 328, 354, 395, 419, 522, 550, 587, 602
 608, 625, 676, 740, 771, 812, 817, 828, 834, 840, 846, 850, 855, 858, 862, 864
 868, 871, 874, 879, 880, 885, 888, 890, 904, 906, 912, 914, 918, 924, 926, 931
 932, 947, 958
*Elset, elset=nut3tie_S4, instance=halfNut-1
 854, 939
*Elset, elset=nut3tie_S2, instance=halfNut-1
 928,
*Surface, type=ELEMENT, name=nut3tie
nut3tie_S3, S3
nut3tie_S4, S4
nut3tie_S2, S2
*Elset, elset=pre_tension1_S1, instance=halfHub-1, generate
 440,  447,    1
*Surface, type=ELEMENT, name=pre_tension1
pre_tension1_S1, S1
*Elset, elset=pre_tension2_S1, instance=halfHub-1, generate
 456,  463,    1
*Surface, type=ELEMENT, name=pre_tension2
pre_tension2_S1, S1
*Elset, elset=pre_tension3_S2, instance=halfHub-1, generate
 384,  391,    1
*Surface, type=ELEMENT, name=pre_tension3
pre_tension3_S2, S2
*Elset, elset=couplingSurf_S2, instance=halfHub-1, generate
 1116,  1291,     1
*Surface, type=ELEMENT, name=couplingSurf
couplingSurf_S2, S2
**
*Coupling, constraint name=hubCoupling, ref node=refPoint, surface=couplingSurf
*Distributing, weighting method=UNIFORM
** 
*Tie, name=nut1tie, adjust=no
nut1tie, hubtie1
*Tie, name=nut2tie, adjust=no
nut2tie, hubtie2
*Tie, name=nut3tie, adjust=no
nut3tie, hubtie3
*Node, nset=load-1
 2, 0., 0., 0.
*Pre-tension Section, surface=pre_tension1, node=load-1
 1., 0., 0.
*Node, nset=load-2
 3, 0., 0., 0.
*Pre-tension Section, surface=pre_tension2, node=load-2
 1., 0., 0.
*Node, nset=load-3
 4, 0., 0., 0.
*Pre-tension Section, surface=pre_tension3, node=load-3
 1., 0., 0.
*End Assembly
** 
*Material, name=steel
*Elastic
210000., 0.3
*Plastic
250.,0.
300.,1.
** 
