*Heading
** Job name: cyclictests_solid Model name: cyclictests_unsym
*Preprint, echo=NO, model=NO, history=NO, contact=NO
**
** PARTS
**
*Part, name=Part-2
*Node
      1,  -3.88228559,   14.4888878,           0.
      2,         -7.5,   12.9903812,           0.
      3,  -10.6066017,   10.6066017,           0.
      4,  -12.9903812,          7.5,           0.
      5,  -14.4888878,   3.88228559,           0.
      6,         -15.,           0.,           0.
      7,  -14.4888878,  -3.88228559,           0.
      8,  -12.9903812,         -7.5,           0.
      9,  -10.6066017,  -10.6066017,           0.
     10,         -7.5,  -12.9903812,           0.
     11,  -3.88228559,  -14.4888878,           0.
     12,           0.,         -15.,           0.
     13,   3.88228559,  -14.4888878,           0.
     14,          7.5,  -12.9903812,           0.
     15,   10.6066017,  -10.6066017,           0.
     16,   12.9903812,         -7.5,           0.
     17,   14.4888878,  -3.88228559,           0.
     18,          15.,           0.,           0.
     19,   14.4888878,   3.88228559,           0.
     20,   12.9903812,          7.5,           0.
** ... 15076 like lines cut
*Element, type=C3D8R
    1,   320,   344,   352,   537,    24,    48,    56,   241
    2,   379,   544,   375,   345,    83,   248,    79,    49
    3,   319,   343,   345,   375,    23,    47,    49,    79
    4,   400,   373,   317,   341,   104,    77,    21,    45
    5,   371,   390,   340,   315,    75,    94,    44,    19
    6,   346,   371,   315,   339,    50,    75,    19,    43
    7,   346,   370,   384,   381,    50,    74,    88,    85
    8,   337,   312,   368,   394,    41,    16,    72,    98
    9,   336,   311,   367,   399,    40,    15,    71,   103
   10,   311,   335,   347,   367,    15,    39,    51,    71
   11,   309,   333,   388,   365,    13,    37,    92,    69
   12,   363,   364,   332,   307,    67,    68,    36,    11
   13,   307,   331,   348,   363,    11,    35,    52,    67
   14,   401,   361,   305,   329,   105,    65,     9,    33
   15,   406,   452,   398,   369,   110,   156,   102,    73
   16,   328,   303,   359,   395,    32,     7,    63,    99
   17,   303,   327,   349,   359,     7,    31,    53,    63
   18,   349,   358,   383,   378,    53,    62,    87,    82
   19,   325,   300,   356,   397,    29,     4,    60,   101
   20,   350,   356,   300,   324,    54,    60,     4,    28
** ... 13530 like lines cut
*Nset, nset=_PickedSet2, internal, generate
     1,  15096,      1
*Elset, elset=_PickedSet2, internal, generate
     1,  13550,      1
*Elset, elset=EALL, generate
   1,  271,    1
** Section: Section-2
*Solid Section, elset=_PickedSet2, material=COPPER
,
*End Part
**  
**
** ASSEMBLY
**
*Assembly, name=Assembly
**  
*Instance, name=PART-1-1, part=Part-2
*End Instance
**  
*Nset, nset=_PickedSet7, internal, instance=PART-1-1, generate
 14801,  15096,      1
*Elset, elset=_PickedSet7, internal, instance=PART-1-1, generate
 13280,  13550,      1
*Nset, nset=_PickedSet8, internal, instance=PART-1-1, generate
   1,  296,    1
*Elset, elset=_PickedSet8, internal, instance=PART-1-1, generate
   1,  271,    1
*Nset, nset=NALL, instance=PART-1-1, generate
   1,  296,    1
*End Assembly
*Amplitude, name=CYCLE, time=TOTAL TIME
          0.,           0.,           5.,         1.75,          15.,         0.25,          25.,         1.75
         35.,         0.25,          45.,         1.75,          55.,         0.25,          65.,         1.75
         75.,         0.25,          85.,         1.75,          95.,         0.25,         105.,         1.75
        115.,         0.25,         125.,         1.75,         135.,         0.25,         145.,         1.75
        155.,         0.25,         165.,         1.75,         175.,         0.25,         185.,         1.75
** 
** MATERIALS
** 
*Material, name=COPPER
*Elastic
104000., 0.3
*Plastic, hardening=COMBINED, datatype=STABILIZED, number backstresses=1
  46.94,         0.
 52.044, 5.0927e-05
 56.826, 0.00010494
 61.273, 0.00016218
 65.813, 0.00021853
 69.556, 0.00027253
 72.703, 0.00034228
 76.541, 0.00039538
  79.63, 0.00049568
 82.886, 0.00055437
 85.974, 0.00061468
  88.91, 0.00069644
 91.647, 0.00076012
 94.263, 0.00083498
 96.266, 0.00092571
  99.02, 0.00099923
 100.99,  0.0010803
  103.1,    0.00116
 105.34,  0.0012385
 106.91,  0.0013233
** ... 110 like lines cut
*Cyclic Hardening
    13.,     0.
    13., 0.0068
  29.37,  0.034
  50.13, 0.0612
  63.91, 0.0884
  73.01, 0.1156
  80.76, 0.1428
  86.25,   0.17
 90.498, 0.1972
  93.95, 0.2244
 96.155, 0.2516
** 
** BOUNDARY CONDITIONS
** 
** Name: Disp-BC-1 Type: Displacement/Rotation
*Boundary
_PickedSet7, 1, 1
_PickedSet7, 2, 2
_PickedSet7, 3, 3
_PickedSet7, 4, 4
_PickedSet7, 5, 5
_PickedSet7, 6, 6
** ----------------------------------------------------------------
** 
** STEP: Step-1
** 
*Step, name=Step-1, nlgeom=YES, inc=1000
*Static, direct
5., 85., 
** 
** BOUNDARY CONDITIONS
** 
** Name: Disp-BC-2 Type: Displacement/Rotation
*Boundary, amplitude=CYCLE
_PickedSet8, 1, 1, 0.01
** 
** OUTPUT REQUESTS
** 
*Restart, write, frequency=1
** 
** FIELD OUTPUT: F-Output-1
** 
*Output, field, frequency=74
*Element Output, directions=YES
ALPHA, E, EE, EEP, EP, PE, PEP, S, PEEQ
** 
** FIELD OUTPUT: F-Output-2
** 
*Node Output
U, 
** 
** HISTORY OUTPUT: H-Output-1
** 
*Output, history
*Element Output, elset=PART-1-1.EALL
ALPHA11, ALPHA12, ALPHA13, ALPHA22, ALPHA23, ALPHA33, ALPHAP, E11, E12, E13, E22, E23, E33, EE11, EE12, EE13
EE22, EE23, EE33, EEP, EP, INV3, PE11, PE12, PE13, PE22, PE23, PE33, PEP, PRESS, S11, S12
S13, S22, S23, S33, SP, TRESC
** 
** HISTORY OUTPUT: H-Output-2
** 
*Node Output, nset=NALL
U1, U2, U3, UR1, UR2, UR3
*End Step
** ----------------------------------------------------------------
** 
** STEP: Step-2
** 
*Step, name=Step-2, nlgeom=YES, inc=1000
*Static, direct
5., 50., 
** 
** OUTPUT REQUESTS
** 
*Restart, write, frequency=0
** 
** FIELD OUTPUT: F-Output-1
** 
*Output, field, frequency=74
*Element Output, directions=YES
ALPHA, E, EE, EEP, EP, PE, PEP, S, PEEQ
** 
** FIELD OUTPUT: F-Output-2
** 
*Node Output
U, 
** 
** HISTORY OUTPUT: H-Output-1
** 
*Output, history
*Element Output, elset=PART-1-1.EALL
ALPHA11, ALPHA12, ALPHA13, ALPHA22, ALPHA23, ALPHA33, ALPHAP, E11, E12, E13, E22, E23, E33, EE11, EE12, EE13
EE22, EE23, EE33, EEP, EP, INV3, PE11, PE12, PE13, PE22, PE23, PE33, PEP, PRESS, S11, S12
S13, S22, S23, S33, SP, TRESC
** 
** HISTORY OUTPUT: H-Output-2
** 
*Node Output, nset=NALL
U1, U2, U3, UR1, UR2, UR3
*End Step
** ----------------------------------------------------------------
** 
** STEP: Step-3
** 
*Step, name=Step-3, nlgeom=YES, inc=1000
*Static, direct
5., 50., 
** 
** OUTPUT REQUESTS
** 
*Restart, write, frequency=0
** 
** FIELD OUTPUT: F-Output-1
** 
*Output, field, frequency=74
*Element Output, directions=YES
ALPHA, E, EE, EEP, EP, PE, PEP, S, PEEQ
** 
** FIELD OUTPUT: F-Output-2
** 
*Node Output
U, 
** 
** HISTORY OUTPUT: H-Output-1
** 
*Output, history
*Element Output, elset=PART-1-1.EALL
ALPHA11, ALPHA12, ALPHA13, ALPHA22, ALPHA23, ALPHA33, ALPHAP, E11, E12, E13, E22, E23, E33, EE11, EE12, EE13
EE22, EE23, EE33, EEP, EP, INV3, PE11, PE12, PE13, PE22, PE23, PE33, PEP, PRESS, S11, S12
S13, S22, S23, S33, SP, TRESC
** 
** HISTORY OUTPUT: H-Output-2
** 
*Node Output, nset=NALL
U1, U2, U3, UR1, UR2, UR3
*End Step
