1

   Abaqus 2023.HF4                                  Date 13-Aug-2024   Time 16:21:06
   For use by AALTO UNIVERSITY under license from Dassault Systemes or its subsidiary.

                                                                                 
                                                                                 
 STEP    1     INCREMENT     1     STEP TIME    0.00    


                        S T E P       1     D Y N A M I C   A N A L Y S I S - I M P L I C I T  I N T E G R A T I O N


                                                                                          

          DYNAMIC APPLICATION PACKED SCHEME IS                 TRANSIENT FIDELITY  
          HILBER-HUGHES-TAYLOR (HHT) TIME INTEGRATOR IS USED

          FIXED TIME INCREMENTS
          TIME INCREMENT IS                                    1.000E-07
          TIME PERIOD IS                                       1.000E-04

          HILBER-HUGHES-TAYLOR METHOD PARAMETERS:  ALPHA   IS  -5.000000E-02
                                                   BETA    IS   0.275625    
                                                   GAMMA   IS   0.550000    
          SINGULAR MASS TREATMENT TYPE IS                     ERROR
          CONSERVATIVE TIME INCREMENTATION IS USED
          STEP AMPLITUDE IS                                    STEP

 CONVERGENCE TOLERANCE PARAMETERS FOR FORCE    
     CRITERION FOR RESIDUAL FORCE     FOR A NONLINEAR PROBLEM          5.000E-03
     CRITERION FOR DISP.    CORRECTION IN A NONLINEAR PROBLEM          1.000E-02
     INITIAL VALUE OF TIME AVERAGE FORCE                               1.000E-02
     AVERAGE FORCE     IS TIME AVERAGE FORCE    
     ALTERNATE CRIT. FOR RESIDUAL FORCE     FOR A NONLINEAR PROBLEM    2.000E-02
     CRITERION FOR ZERO FORCE     RELATIVE TO TIME AVRG. FORCE         1.000E-05
     CRITERION FOR RESIDUAL FORCE     WHEN THERE IS ZERO FLUX          1.000E-05
     CRITERION FOR DISP.    CORRECTION WHEN THERE IS ZERO FLUX         1.000E-03
     CRITERION FOR RESIDUAL FORCE     FOR A LINEAR INCREMENT           1.000E-08
     FIELD CONVERSION RATIO                                             1.00    
     CRITERION FOR ZERO FORCE     REL. TO TIME AVRG. MAX. FORCE        1.000E-05
     CRITERION FOR ZERO DISP.    RELATIVE TO CHARACTERISTIC LENGTH     1.000E-08

 CONVERGENCE TOLERANCE PARAMETERS FOR MOMENT   
     CRITERION FOR RESIDUAL MOMENT    FOR A NONLINEAR PROBLEM          5.000E-03
     CRITERION FOR ROTATION CORRECTION IN A NONLINEAR PROBLEM          1.000E-02
     INITIAL VALUE OF TIME AVERAGE MOMENT                              1.000E-02
     AVERAGE MOMENT    IS TIME AVERAGE MOMENT   
     ALTERNATE CRIT. FOR RESIDUAL MOMENT    FOR A NONLINEAR PROBLEM    2.000E-02
     CRITERION FOR ZERO MOMENT    RELATIVE TO TIME AVRG. MOMENT        1.000E-05
     CRITERION FOR RESIDUAL MOMENT    WHEN THERE IS ZERO FLUX          1.000E-05
     CRITERION FOR ROTATION CORRECTION WHEN THERE IS ZERO FLUX         1.000E-03
     CRITERION FOR RESIDUAL MOMENT    FOR A LINEAR INCREMENT           1.000E-08
     FIELD CONVERSION RATIO                                             1.00    
     CRITERION FOR ZERO MOMENT    REL. TO TIME AVRG. MAX. MOMENT       1.000E-05

     VOLUMETRIC STRAIN COMPATIBILITY TOLERANCE FOR HYBRID SOLIDS       1.000E-05
     AXIAL STRAIN COMPATIBILITY TOLERANCE FOR HYBRID BEAMS             1.000E-05
     TRANS. SHEAR STRAIN COMPATIBILITY TOLERANCE FOR HYBRID BEAMS      1.000E-05
     SOFT CONTACT CONSTRAINT COMPATIBILITY TOLERANCE FOR P>P0          5.000E-03
     SOFT CONTACT CONSTRAINT COMPATIBILITY TOLERANCE FOR P=0.0         0.100    
     CONTACT FORCE ERROR TOLERANCE FOR CONVERT SDI=YES                 1.00    
     DISPLACEMENT COMPATIBILITY TOLERANCE FOR DCOUP ELEMENTS           1.000E-05
     ROTATION COMPATIBILITY TOLERANCE FOR DCOUP ELEMENTS               1.000E-05

 EQUILIBRIUM WILL BE CHECKED FOR SEVERE DISCONTINUITY ITERATIONS

 ITERATION CONTROL PARAMETERS:
     FIRST EQUILIBRIUM ITERATION FOR CONSECUTIVE DIVERGENCE CHECK              4
     EQUILIBRIUM ITERATION AFTER WHICH ALTERNATE RESIDUAL IS USED              9
     MAXIMUM EQUILIBRIUM ITERATIONS ALLOWED                                   16
     MAXIMUM ITERATIONS FOR SEVERE DISCONTINUITIES                            12
     GLOBAL STABILIZATION CONTROL IS NOT USED

          PRINT OF INCREMENT NUMBER, TIME, ETC., EVERY    1  INCREMENTS

     THE MAXIMUM NUMBER OF INCREMENTS IN THIS STEP IS                    1000

     VELOCITY-BASED PARABOLIC EXTRAPOLATION WILL BE USED

     CHARACTERISTIC ELEMENT LENGTH     1.523E-03

     DETAILS REGARDING ACTUAL SOLUTION WAVEFRONT REQUESTED

     DETAILED OUTPUT OF DIAGNOSTICS TO DATABASE REQUESTED

     PRINT OF INCREMENT NUMBER, TIME, ETC., TO THE MESSAGE FILE EVERY     1  INCREMENTS

     ELEMENT OPERATIONS WILL BE CARRIED OUT IN PARALLEL USING   2 THREADS ON 1 DOMAIN

     PARALLEL CONTACT TRACKING ENABLED


     COLLECTING MODEL CONSTRAINT INFORMATION FOR OVERCONSTRAINT CHECKS

     COLLECTING STEP CONSTRAINT INFORMATION FOR OVERCONSTRAINT CHECKS
 
	REGULARIZED SYMMETRIC DIRECT SPARSE SOLVER RUNNING ON
 	1 HOST x 1 MPI RANK PER HOST x 2 THREADS PER RANK
        NUMBER OF EQUATIONS:  51912
        NUMBER OF RHS:        1
        NUMBER OF FLOPS:      4.498e+09
        SOLVER ELAPSED TIME:  322ms
 
	REGULARIZED SYMMETRIC DIRECT SPARSE SOLVER RUNNING ON
 	1 HOST x 1 MPI RANK PER HOST x 2 THREADS PER RANK
        NUMBER OF EQUATIONS:  51912
        NUMBER OF RHS:        1
        NUMBER OF FLOPS:      4.498e+09
        SOLVER ELAPSED TIME:  408ms


  INCREMENT     1 STARTS. ATTEMPT NUMBER  1, TIME INCREMENT  1.000E-07
 
     INITIAL ELEMENT LOAD BALANCE
            DOMAIN    1     THREAD    NUMBER OF ELEMENTS
                              1            77384
                              2            81532
 
	SYMMETRIC DIRECT SPARSE SOLVER RUNNING ON
 	1 HOST x 1 MPI RANK PER HOST x 2 THREADS PER RANK
        NUMBER OF EQUATIONS:  51912
        NUMBER OF RHS:        1
        NUMBER OF FLOPS:      4.498e+09
        SOLVER ELAPSED TIME:  385ms

               CONVERGENCE CHECKS FOR EQUILIBRIUM ITERATION     1


 AVERAGE FORCE                      8.021E-03   TIME AVG. FORCE       8.021E-03
 LARGEST SCALED RESIDUAL FORCE      1.443E-15   AT NODE        184   DOF  2
   INSTANCE: BLOCK-1                                                                         
  CORRESPONDING RESIDUAL FORCE      1.443E-15
 LARGEST INCREMENT OF DISP.         6.732E-09   AT NODE        196   DOF  2
   INSTANCE: BLOCK-1                                                                         
 LARGEST CORRECTION TO DISP.        6.732E-09   AT NODE        196   DOF  2
   INSTANCE: BLOCK-1                                                                         
          THE FORCE     EQUILIBRIUM RESPONSE WAS LINEAR IN THIS INCREMENT

 AVERAGE MOMENT                      0.00       TIME AVG. MOMENT      1.000E-02
 ALL MOMENT    RESIDUALS ARE ZERO
 ALL ROTATION INCREMENTS ARE ZERO
 ALL CORRECTION TO ROTATION ARE ZERO
          THERE IS ZERO MOMENT    EVERYWHERE

 ITERATION SUMMARY FOR THE INCREMENT:   1 TOTAL ITERATIONS, OF WHICH
   0 ARE SEVERE DISCONTINUITY ITERATIONS AND  1 ARE EQUILIBRIUM ITERATIONS.

 TIME INCREMENT COMPLETED  1.000E-07,  FRACTION OF STEP COMPLETED  1.000E-03
 STEP TIME COMPLETED       1.000E-07,  TOTAL TIME COMPLETED        1.000E-07


  INCREMENT     2 STARTS. ATTEMPT NUMBER  1, TIME INCREMENT  1.000E-07
 
	SYMMETRIC DIRECT SPARSE SOLVER RUNNING ON
 	1 HOST x 1 MPI RANK PER HOST x 2 THREADS PER RANK
        NUMBER OF EQUATIONS:  51912
        NUMBER OF RHS:        1
        NUMBER OF FLOPS:      4.498e+09
        SOLVER ELAPSED TIME:  369ms

               CONVERGENCE CHECKS FOR EQUILIBRIUM ITERATION     1


 AVERAGE FORCE                      9.454E-03   TIME AVG. FORCE       8.737E-03
 LARGEST SCALED RESIDUAL FORCE      1.526E-15   AT NODE      12433   DOF  2
   INSTANCE: BLOCK-1                                                                         
  CORRESPONDING RESIDUAL FORCE      1.526E-15
 LARGEST INCREMENT OF DISP.        -1.616E-08   AT NODE         12   DOF  2
   INSTANCE: BLOCK-1                                                                         
 LARGEST CORRECTION TO DISP.       -4.716E-09   AT NODE          5   DOF  2
   INSTANCE: BLOCK-1                                                                         
          THE FORCE     EQUILIBRIUM RESPONSE WAS LINEAR IN THIS INCREMENT

 AVERAGE MOMENT                      0.00       TIME AVG. MOMENT      1.000E-02
 ALL MOMENT    RESIDUALS ARE ZERO
 ALL ROTATION INCREMENTS ARE ZERO
 ALL CORRECTION TO ROTATION ARE ZERO
          THERE IS ZERO MOMENT    EVERYWHERE

 ITERATION SUMMARY FOR THE INCREMENT:   1 TOTAL ITERATIONS, OF WHICH
   0 ARE SEVERE DISCONTINUITY ITERATIONS AND  1 ARE EQUILIBRIUM ITERATIONS.

 TIME INCREMENT COMPLETED  1.000E-07,  FRACTION OF STEP COMPLETED  2.000E-03
 STEP TIME COMPLETED       2.000E-07,  TOTAL TIME COMPLETED        2.000E-07


  INCREMENT     3 STARTS. ATTEMPT NUMBER  1, TIME INCREMENT  1.000E-07
 
	SYMMETRIC DIRECT SPARSE SOLVER RUNNING ON
 	1 HOST x 1 MPI RANK PER HOST x 2 THREADS PER RANK
        NUMBER OF EQUATIONS:  51912
        NUMBER OF RHS:        1
        NUMBER OF FLOPS:      4.498e+09
        SOLVER ELAPSED TIME:  63ms

               CONVERGENCE CHECKS FOR EQUILIBRIUM ITERATION     1


 AVERAGE FORCE                      1.166E-02   TIME AVG. FORCE       9.710E-03
 LARGEST SCALED RESIDUAL FORCE      1.938E-15   AT NODE      10943   DOF  2
   INSTANCE: BLOCK-1                                                                         
  CORRESPONDING RESIDUAL FORCE      1.938E-15
 LARGEST INCREMENT OF DISP.        -1.794E-08   AT NODE         12   DOF  2
   INSTANCE: BLOCK-1                                                                         
 LARGEST CORRECTION TO DISP.       -4.574E-09   AT NODE        196   DOF  2
   INSTANCE: BLOCK-1                                                                         
          THE FORCE     EQUILIBRIUM RESPONSE WAS LINEAR IN THIS INCREMENT

 AVERAGE MOMENT                      0.00       TIME AVG. MOMENT      1.000E-02
 ALL MOMENT    RESIDUALS ARE ZERO
 ALL ROTATION INCREMENTS ARE ZERO
 ALL CORRECTION TO ROTATION ARE ZERO
          THERE IS ZERO MOMENT    EVERYWHERE

 ITERATION SUMMARY FOR THE INCREMENT:   1 TOTAL ITERATIONS, OF WHICH
   0 ARE SEVERE DISCONTINUITY ITERATIONS AND  1 ARE EQUILIBRIUM ITERATIONS.

 TIME INCREMENT COMPLETED  1.000E-07,  FRACTION OF STEP COMPLETED  3.000E-03
 STEP TIME COMPLETED       3.000E-07,  TOTAL TIME COMPLETED        3.000E-07


  INCREMENT     4 STARTS. ATTEMPT NUMBER  1, TIME INCREMENT  1.000E-07
 
	SYMMETRIC DIRECT SPARSE SOLVER RUNNING ON
 	1 HOST x 1 MPI RANK PER HOST x 2 THREADS PER RANK
        NUMBER OF EQUATIONS:  51912
        NUMBER OF RHS:        1
        NUMBER OF FLOPS:      4.498e+09
        SOLVER ELAPSED TIME:  62ms

               CONVERGENCE CHECKS FOR EQUILIBRIUM ITERATION     1


 AVERAGE FORCE                      1.345E-02   TIME AVG. FORCE       1.065E-02
 LARGEST SCALED RESIDUAL FORCE     -1.832E-15   AT NODE        639   DOF  2
   INSTANCE: BLOCK-1                                                                         
  CORRESPONDING RESIDUAL FORCE     -1.832E-15
 LARGEST INCREMENT OF DISP.         1.711E-08   AT NODE          3   DOF  2
   INSTANCE: BLOCK-1                                                                         
 LARGEST CORRECTION TO DISP.       -2.388E-09   AT NODE        174   DOF  2
   INSTANCE: BLOCK-1                                                                         
          THE FORCE     EQUILIBRIUM RESPONSE WAS LINEAR IN THIS INCREMENT

 AVERAGE MOMENT                      0.00       TIME AVG. MOMENT      1.000E-02
 ALL MOMENT    RESIDUALS ARE ZERO
 ALL ROTATION INCREMENTS ARE ZERO
 ALL CORRECTION TO ROTATION ARE ZERO
          THERE IS ZERO MOMENT    EVERYWHERE

 ITERATION SUMMARY FOR THE INCREMENT:   1 TOTAL ITERATIONS, OF WHICH
   0 ARE SEVERE DISCONTINUITY ITERATIONS AND  1 ARE EQUILIBRIUM ITERATIONS.

 TIME INCREMENT COMPLETED  1.000E-07,  FRACTION OF STEP COMPLETED  4.000E-03
 STEP TIME COMPLETED       4.000E-07,  TOTAL TIME COMPLETED        4.000E-07


  INCREMENT     5 STARTS. ATTEMPT NUMBER  1, TIME INCREMENT  1.000E-07
 
	SYMMETRIC DIRECT SPARSE SOLVER RUNNING ON
 	1 HOST x 1 MPI RANK PER HOST x 2 THREADS PER RANK
        NUMBER OF EQUATIONS:  51912
        NUMBER OF RHS:        1
        NUMBER OF FLOPS:      4.498e+09
        SOLVER ELAPSED TIME:  59ms

               CONVERGENCE CHECKS FOR EQUILIBRIUM ITERATION     1


 AVERAGE FORCE                      1.442E-02   TIME AVG. FORCE       1.140E-02
 LARGEST SCALED RESIDUAL FORCE     -2.547E-15   AT NODE      12333   DOF  2
   INSTANCE: BLOCK-1                                                                         
  CORRESPONDING RESIDUAL FORCE     -2.547E-15
 LARGEST INCREMENT OF DISP.         1.770E-08   AT NODE          3   DOF  2
   INSTANCE: BLOCK-1                                                                         
 LARGEST CORRECTION TO DISP.        2.397E-09   AT NODE        196   DOF  2
   INSTANCE: BLOCK-1                                                                         
          THE FORCE     EQUILIBRIUM RESPONSE WAS LINEAR IN THIS INCREMENT

 AVERAGE MOMENT                      0.00       TIME AVG. MOMENT      1.000E-02
 ALL MOMENT    RESIDUALS ARE ZERO
 ALL ROTATION INCREMENTS ARE ZERO
 ALL CORRECTION TO ROTATION ARE ZERO
          THERE IS ZERO MOMENT    EVERYWHERE

 ITERATION SUMMARY FOR THE INCREMENT:   1 TOTAL ITERATIONS, OF WHICH
   0 ARE SEVERE DISCONTINUITY ITERATIONS AND  1 ARE EQUILIBRIUM ITERATIONS.

 TIME INCREMENT COMPLETED  1.000E-07,  FRACTION OF STEP COMPLETED  5.000E-03
 STEP TIME COMPLETED       5.000E-07,  TOTAL TIME COMPLETED        5.000E-07


  INCREMENT     6 STARTS. ATTEMPT NUMBER  1, TIME INCREMENT  1.000E-07
 
	SYMMETRIC DIRECT SPARSE SOLVER RUNNING ON
 	1 HOST x 1 MPI RANK PER HOST x 2 THREADS PER RANK
        NUMBER OF EQUATIONS:  51912
        NUMBER OF RHS:        1
        NUMBER OF FLOPS:      4.498e+09
        SOLVER ELAPSED TIME:  49ms

               CONVERGENCE CHECKS FOR EQUILIBRIUM ITERATION     1


 AVERAGE FORCE                      1.505E-02   TIME AVG. FORCE       1.201E-02
 LARGEST SCALED RESIDUAL FORCE      3.141E-15   AT NODE      12874   DOF  2
   INSTANCE: BLOCK-1                                                                         
  CORRESPONDING RESIDUAL FORCE      3.141E-15
 LARGEST INCREMENT OF DISP.        -1.487E-08   AT NODE        542   DOF  2
   INSTANCE: BLOCK-1                                                                         
 LARGEST CORRECTION TO DISP.        3.021E-09   AT NODE         57   DOF  2
   INSTANCE: BLOCK-1                                                                         
          THE FORCE     EQUILIBRIUM RESPONSE WAS LINEAR IN THIS INCREMENT

 AVERAGE MOMENT                      0.00       TIME AVG. MOMENT      1.000E-02
 ALL MOMENT    RESIDUALS ARE ZERO
 ALL ROTATION INCREMENTS ARE ZERO
 ALL CORRECTION TO ROTATION ARE ZERO
          THERE IS ZERO MOMENT    EVERYWHERE

 ITERATION SUMMARY FOR THE INCREMENT:   1 TOTAL ITERATIONS, OF WHICH
   0 ARE SEVERE DISCONTINUITY ITERATIONS AND  1 ARE EQUILIBRIUM ITERATIONS.

 TIME INCREMENT COMPLETED  1.000E-07,  FRACTION OF STEP COMPLETED  6.000E-03
 STEP TIME COMPLETED       6.000E-07,  TOTAL TIME COMPLETED        6.000E-07


  INCREMENT     7 STARTS. ATTEMPT NUMBER  1, TIME INCREMENT  1.000E-07
 
	SYMMETRIC DIRECT SPARSE SOLVER RUNNING ON
 	1 HOST x 1 MPI RANK PER HOST x 2 THREADS PER RANK
        NUMBER OF EQUATIONS:  51912
        NUMBER OF RHS:        1
        NUMBER OF FLOPS:      4.498e+09
        SOLVER ELAPSED TIME:  72ms

               CONVERGENCE CHECKS FOR EQUILIBRIUM ITERATION     1


 AVERAGE FORCE                      1.557E-02   TIME AVG. FORCE       1.252E-02
 LARGEST SCALED RESIDUAL FORCE      3.605E-15   AT NODE      11584   DOF  2
   INSTANCE: BLOCK-1                                                                         
  CORRESPONDING RESIDUAL FORCE      3.605E-15
 LARGEST INCREMENT OF DISP.        -1.588E-08   AT NODE       1626   DOF  2
   INSTANCE: BLOCK-1                                                                         
 LARGEST CORRECTION TO DISP.        2.464E-09   AT NODE        174   DOF  2
   INSTANCE: BLOCK-1                                                                         
          THE FORCE     EQUILIBRIUM RESPONSE WAS LINEAR IN THIS INCREMENT

 AVERAGE MOMENT                      0.00       TIME AVG. MOMENT      1.000E-02
 ALL MOMENT    RESIDUALS ARE ZERO
 ALL ROTATION INCREMENTS ARE ZERO
 ALL CORRECTION TO ROTATION ARE ZERO
          THERE IS ZERO MOMENT    EVERYWHERE

 ITERATION SUMMARY FOR THE INCREMENT:   1 TOTAL ITERATIONS, OF WHICH
   0 ARE SEVERE DISCONTINUITY ITERATIONS AND  1 ARE EQUILIBRIUM ITERATIONS.

 TIME INCREMENT COMPLETED  1.000E-07,  FRACTION OF STEP COMPLETED  7.000E-03
 STEP TIME COMPLETED       7.000E-07,  TOTAL TIME COMPLETED        7.000E-07


  INCREMENT     8 STARTS. ATTEMPT NUMBER  1, TIME INCREMENT  1.000E-07
 
	SYMMETRIC DIRECT SPARSE SOLVER RUNNING ON
 	1 HOST x 1 MPI RANK PER HOST x 2 THREADS PER RANK
        NUMBER OF EQUATIONS:  51912
        NUMBER OF RHS:        1
        NUMBER OF FLOPS:      4.498e+09
        SOLVER ELAPSED TIME:  67ms

               CONVERGENCE CHECKS FOR EQUILIBRIUM ITERATION     1


 AVERAGE FORCE                      1.600E-02   TIME AVG. FORCE       1.295E-02
 LARGEST SCALED RESIDUAL FORCE      4.433E-15   AT NODE       9441   DOF  2
   INSTANCE: BLOCK-1                                                                         
  CORRESPONDING RESIDUAL FORCE      4.433E-15
 LARGEST INCREMENT OF DISP.        -1.510E-08   AT NODE       1684   DOF  2
   INSTANCE: BLOCK-1                                                                         
 LARGEST CORRECTION TO DISP.        2.556E-09   AT NODE         12   DOF  3
   INSTANCE: BLOCK-1                                                                         
          THE FORCE     EQUILIBRIUM RESPONSE WAS LINEAR IN THIS INCREMENT

 AVERAGE MOMENT                      0.00       TIME AVG. MOMENT      1.000E-02
 ALL MOMENT    RESIDUALS ARE ZERO
 ALL ROTATION INCREMENTS ARE ZERO
 ALL CORRECTION TO ROTATION ARE ZERO
          THERE IS ZERO MOMENT    EVERYWHERE

 ITERATION SUMMARY FOR THE INCREMENT:   1 TOTAL ITERATIONS, OF WHICH
   0 ARE SEVERE DISCONTINUITY ITERATIONS AND  1 ARE EQUILIBRIUM ITERATIONS.

 TIME INCREMENT COMPLETED  1.000E-07,  FRACTION OF STEP COMPLETED  8.000E-03
 STEP TIME COMPLETED       8.000E-07,  TOTAL TIME COMPLETED        8.000E-07


  INCREMENT     9 STARTS. ATTEMPT NUMBER  1, TIME INCREMENT  1.000E-07
 
	SYMMETRIC DIRECT SPARSE SOLVER RUNNING ON
 	1 HOST x 1 MPI RANK PER HOST x 2 THREADS PER RANK
        NUMBER OF EQUATIONS:  51912
        NUMBER OF RHS:        1
        NUMBER OF FLOPS:      4.498e+09
        SOLVER ELAPSED TIME:  75ms

               CONVERGENCE CHECKS FOR EQUILIBRIUM ITERATION     1


 AVERAGE FORCE                      1.622E-02   TIME AVG. FORCE       1.332E-02
 LARGEST SCALED RESIDUAL FORCE      4.283E-15   AT NODE      12433   DOF  2
   INSTANCE: BLOCK-1                                                                         
  CORRESPONDING RESIDUAL FORCE      4.283E-15
 LARGEST INCREMENT OF DISP.        -1.681E-08   AT NODE        583   DOF  2
   INSTANCE: BLOCK-1                                                                         
 LARGEST CORRECTION TO DISP.        2.833E-09   AT NODE          5   DOF  1
   INSTANCE: BLOCK-1                                                                         
          THE FORCE     EQUILIBRIUM RESPONSE WAS LINEAR IN THIS INCREMENT

 AVERAGE MOMENT                      0.00       TIME AVG. MOMENT      1.000E-02
 ALL MOMENT    RESIDUALS ARE ZERO
 ALL ROTATION INCREMENTS ARE ZERO
 ALL CORRECTION TO ROTATION ARE ZERO
          THERE IS ZERO MOMENT    EVERYWHERE

 ITERATION SUMMARY FOR THE INCREMENT:   1 TOTAL ITERATIONS, OF WHICH
   0 ARE SEVERE DISCONTINUITY ITERATIONS AND  1 ARE EQUILIBRIUM ITERATIONS.

 TIME INCREMENT COMPLETED  1.000E-07,  FRACTION OF STEP COMPLETED  9.000E-03
 STEP TIME COMPLETED       9.000E-07,  TOTAL TIME COMPLETED        9.000E-07


  INCREMENT    10 STARTS. ATTEMPT NUMBER  1, TIME INCREMENT  1.000E-07
 
	SYMMETRIC DIRECT SPARSE SOLVER RUNNING ON
 	1 HOST x 1 MPI RANK PER HOST x 2 THREADS PER RANK
        NUMBER OF EQUATIONS:  51912
        NUMBER OF RHS:        1
        NUMBER OF FLOPS:      4.498e+09
        SOLVER ELAPSED TIME:  65ms

               CONVERGENCE CHECKS FOR EQUILIBRIUM ITERATION     1


 AVERAGE FORCE                      1.653E-02   TIME AVG. FORCE       1.364E-02
 LARGEST SCALED RESIDUAL FORCE      3.855E-15   AT NODE      10217   DOF  2
   INSTANCE: BLOCK-1                                                                         
  CORRESPONDING RESIDUAL FORCE      3.855E-15
 LARGEST INCREMENT OF DISP.        -1.678E-08   AT NODE        505   DOF  2
   INSTANCE: BLOCK-1                                                                         
 LARGEST CORRECTION TO DISP.       -2.896E-09   AT NODE         73   DOF  2
   INSTANCE: BLOCK-1                                                                         
          THE FORCE     EQUILIBRIUM RESPONSE WAS LINEAR IN THIS INCREMENT

 AVERAGE MOMENT                      0.00       TIME AVG. MOMENT      1.000E-02
 ALL MOMENT    RESIDUALS ARE ZERO
 ALL ROTATION INCREMENTS ARE ZERO
 ALL CORRECTION TO ROTATION ARE ZERO
          THERE IS ZERO MOMENT    EVERYWHERE

 ITERATION SUMMARY FOR THE INCREMENT:   1 TOTAL ITERATIONS, OF WHICH
   0 ARE SEVERE DISCONTINUITY ITERATIONS AND  1 ARE EQUILIBRIUM ITERATIONS.

 TIME INCREMENT COMPLETED  1.000E-07,  FRACTION OF STEP COMPLETED  1.000E-02
 STEP TIME COMPLETED       1.000E-06,  TOTAL TIME COMPLETED        1.000E-06


  INCREMENT    11 STARTS. ATTEMPT NUMBER  1, TIME INCREMENT  1.000E-07
 
	SYMMETRIC DIRECT SPARSE SOLVER RUNNING ON
 	1 HOST x 1 MPI RANK PER HOST x 2 THREADS PER RANK
        NUMBER OF EQUATIONS:  51912
        NUMBER OF RHS:        1
        NUMBER OF FLOPS:      4.498e+09
        SOLVER ELAPSED TIME:  73ms

               CONVERGENCE CHECKS FOR EQUILIBRIUM ITERATION     1


 AVERAGE FORCE                      1.701E-02   TIME AVG. FORCE       1.394E-02
 LARGEST SCALED RESIDUAL FORCE      4.635E-15   AT NODE      11048   DOF  2
   INSTANCE: BLOCK-1                                                                         
  CORRESPONDING RESIDUAL FORCE      4.635E-15
 LARGEST INCREMENT OF DISP.        -1.499E-08   AT NODE        592   DOF  2
   INSTANCE: BLOCK-1                                                                         
 LARGEST CORRECTION TO DISP.       -3.359E-09   AT NODE          5   DOF  1
   INSTANCE: BLOCK-1                                                                         
          THE FORCE     EQUILIBRIUM RESPONSE WAS LINEAR IN THIS INCREMENT

 AVERAGE MOMENT                      0.00       TIME AVG. MOMENT      1.000E-02
 ALL MOMENT    RESIDUALS ARE ZERO
 ALL ROTATION INCREMENTS ARE ZERO
 ALL CORRECTION TO ROTATION ARE ZERO
          THERE IS ZERO MOMENT    EVERYWHERE

 ITERATION SUMMARY FOR THE INCREMENT:   1 TOTAL ITERATIONS, OF WHICH
   0 ARE SEVERE DISCONTINUITY ITERATIONS AND  1 ARE EQUILIBRIUM ITERATIONS.

 TIME INCREMENT COMPLETED  1.000E-07,  FRACTION OF STEP COMPLETED  1.100E-02
 STEP TIME COMPLETED       1.100E-06,  TOTAL TIME COMPLETED        1.100E-06


  INCREMENT    12 STARTS. ATTEMPT NUMBER  1, TIME INCREMENT  1.000E-07
 
	SYMMETRIC DIRECT SPARSE SOLVER RUNNING ON
 	1 HOST x 1 MPI RANK PER HOST x 2 THREADS PER RANK
        NUMBER OF EQUATIONS:  51912
        NUMBER OF RHS:        1
        NUMBER OF FLOPS:      4.498e+09
        SOLVER ELAPSED TIME:  64ms

               CONVERGENCE CHECKS FOR EQUILIBRIUM ITERATION     1


 AVERAGE FORCE                      1.757E-02   TIME AVG. FORCE       1.425E-02
 LARGEST SCALED RESIDUAL FORCE     -3.759E-15   AT NODE      11562   DOF  2
   INSTANCE: BLOCK-1                                                                         
  CORRESPONDING RESIDUAL FORCE     -3.759E-15
 LARGEST INCREMENT OF DISP.         1.378E-08   AT NODE        184   DOF  2
   INSTANCE: BLOCK-1                                                                         
 LARGEST CORRECTION TO DISP.        2.498E-09   AT NODE          5   DOF  2
   INSTANCE: BLOCK-1                                                                         
          THE FORCE     EQUILIBRIUM RESPONSE WAS LINEAR IN THIS INCREMENT

 AVERAGE MOMENT                      0.00       TIME AVG. MOMENT      1.000E-02
 ALL MOMENT    RESIDUALS ARE ZERO
 ALL ROTATION INCREMENTS ARE ZERO
 ALL CORRECTION TO ROTATION ARE ZERO
          THERE IS ZERO MOMENT    EVERYWHERE

 ITERATION SUMMARY FOR THE INCREMENT:   1 TOTAL ITERATIONS, OF WHICH
   0 ARE SEVERE DISCONTINUITY ITERATIONS AND  1 ARE EQUILIBRIUM ITERATIONS.

 TIME INCREMENT COMPLETED  1.000E-07,  FRACTION OF STEP COMPLETED  1.200E-02
 STEP TIME COMPLETED       1.200E-06,  TOTAL TIME COMPLETED        1.200E-06


  INCREMENT    13 STARTS. ATTEMPT NUMBER  1, TIME INCREMENT  1.000E-07
 
	SYMMETRIC DIRECT SPARSE SOLVER RUNNING ON
 	1 HOST x 1 MPI RANK PER HOST x 2 THREADS PER RANK
        NUMBER OF EQUATIONS:  51912
        NUMBER OF RHS:        1
        NUMBER OF FLOPS:      4.498e+09
        SOLVER ELAPSED TIME:  76ms

               CONVERGENCE CHECKS FOR EQUILIBRIUM ITERATION     1


 AVERAGE FORCE                      1.793E-02   TIME AVG. FORCE       1.453E-02
 LARGEST SCALED RESIDUAL FORCE     -3.174E-15   AT NODE      12676   DOF  2
   INSTANCE: BLOCK-1                                                                         
  CORRESPONDING RESIDUAL FORCE     -3.174E-15
 LARGEST INCREMENT OF DISP.        -1.470E-08   AT NODE        573   DOF  2
   INSTANCE: BLOCK-1                                                                         
 LARGEST CORRECTION TO DISP.        2.674E-09   AT NODE         73   DOF  2
   INSTANCE: BLOCK-1                                                                         
          THE FORCE     EQUILIBRIUM RESPONSE WAS LINEAR IN THIS INCREMENT

 AVERAGE MOMENT                      0.00       TIME AVG. MOMENT      1.000E-02
 ALL MOMENT    RESIDUALS ARE ZERO
 ALL ROTATION INCREMENTS ARE ZERO
 ALL CORRECTION TO ROTATION ARE ZERO
          THERE IS ZERO MOMENT    EVERYWHERE

 ITERATION SUMMARY FOR THE INCREMENT:   1 TOTAL ITERATIONS, OF WHICH
   0 ARE SEVERE DISCONTINUITY ITERATIONS AND  1 ARE EQUILIBRIUM ITERATIONS.

 TIME INCREMENT COMPLETED  1.000E-07,  FRACTION OF STEP COMPLETED  1.300E-02
 STEP TIME COMPLETED       1.300E-06,  TOTAL TIME COMPLETED        1.300E-06


  INCREMENT    14 STARTS. ATTEMPT NUMBER  1, TIME INCREMENT  1.000E-07
 
	SYMMETRIC DIRECT SPARSE SOLVER RUNNING ON
 	1 HOST x 1 MPI RANK PER HOST x 2 THREADS PER RANK
        NUMBER OF EQUATIONS:  51912
        NUMBER OF RHS:        1
        NUMBER OF FLOPS:      4.498e+09
        SOLVER ELAPSED TIME:  63ms

               CONVERGENCE CHECKS FOR EQUILIBRIUM ITERATION     1


 AVERAGE FORCE                      1.800E-02   TIME AVG. FORCE       1.478E-02
 LARGEST SCALED RESIDUAL FORCE      3.432E-15   AT NODE       9904   DOF  2
   INSTANCE: BLOCK-1                                                                         
  CORRESPONDING RESIDUAL FORCE      3.432E-15
 LARGEST INCREMENT OF DISP.         1.463E-08   AT NODE          5   DOF  2
   INSTANCE: BLOCK-1                                                                         
 LARGEST CORRECTION TO DISP.        2.724E-09   AT NODE        573   DOF  2
   INSTANCE: BLOCK-1                                                                         
          THE FORCE     EQUILIBRIUM RESPONSE WAS LINEAR IN THIS INCREMENT

 AVERAGE MOMENT                      0.00       TIME AVG. MOMENT      1.000E-02
 ALL MOMENT    RESIDUALS ARE ZERO
 ALL ROTATION INCREMENTS ARE ZERO
 ALL CORRECTION TO ROTATION ARE ZERO
          THERE IS ZERO MOMENT    EVERYWHERE

 ITERATION SUMMARY FOR THE INCREMENT:   1 TOTAL ITERATIONS, OF WHICH
   0 ARE SEVERE DISCONTINUITY ITERATIONS AND  1 ARE EQUILIBRIUM ITERATIONS.

 TIME INCREMENT COMPLETED  1.000E-07,  FRACTION OF STEP COMPLETED  1.400E-02
 STEP TIME COMPLETED       1.400E-06,  TOTAL TIME COMPLETED        1.400E-06


  INCREMENT    15 STARTS. ATTEMPT NUMBER  1, TIME INCREMENT  1.000E-07
 
	SYMMETRIC DIRECT SPARSE SOLVER RUNNING ON
 	1 HOST x 1 MPI RANK PER HOST x 2 THREADS PER RANK
        NUMBER OF EQUATIONS:  51912
        NUMBER OF RHS:        1
        NUMBER OF FLOPS:      4.498e+09
        SOLVER ELAPSED TIME:  62ms

               CONVERGENCE CHECKS FOR EQUILIBRIUM ITERATION     1


 AVERAGE FORCE                      1.798E-02   TIME AVG. FORCE       1.499E-02
 LARGEST SCALED RESIDUAL FORCE     -4.177E-15   AT NODE      11048   DOF  2
   INSTANCE: BLOCK-1                                                                         
  CORRESPONDING RESIDUAL FORCE     -4.177E-15
 LARGEST INCREMENT OF DISP.         1.478E-08   AT NODE          5   DOF  2
   INSTANCE: BLOCK-1                                                                         
 LARGEST CORRECTION TO DISP.       -4.156E-09   AT NODE          5   DOF  2
   INSTANCE: BLOCK-1                                                                         
          THE FORCE     EQUILIBRIUM RESPONSE WAS LINEAR IN THIS INCREMENT

 AVERAGE MOMENT                      0.00       TIME AVG. MOMENT      1.000E-02
 ALL MOMENT    RESIDUALS ARE ZERO
 ALL ROTATION INCREMENTS ARE ZERO
 ALL CORRECTION TO ROTATION ARE ZERO
          THERE IS ZERO MOMENT    EVERYWHERE

 ITERATION SUMMARY FOR THE INCREMENT:   1 TOTAL ITERATIONS, OF WHICH
   0 ARE SEVERE DISCONTINUITY ITERATIONS AND  1 ARE EQUILIBRIUM ITERATIONS.

 TIME INCREMENT COMPLETED  1.000E-07,  FRACTION OF STEP COMPLETED  1.500E-02
 STEP TIME COMPLETED       1.500E-06,  TOTAL TIME COMPLETED        1.500E-06


  INCREMENT    16 STARTS. ATTEMPT NUMBER  1, TIME INCREMENT  1.000E-07
 
	SYMMETRIC DIRECT SPARSE SOLVER RUNNING ON
 	1 HOST x 1 MPI RANK PER HOST x 2 THREADS PER RANK
        NUMBER OF EQUATIONS:  51912
        NUMBER OF RHS:        1
        NUMBER OF FLOPS:      4.498e+09
        SOLVER ELAPSED TIME:  69ms

               CONVERGENCE CHECKS FOR EQUILIBRIUM ITERATION     1


 AVERAGE FORCE                      1.792E-02   TIME AVG. FORCE       1.518E-02
 LARGEST SCALED RESIDUAL FORCE      4.809E-15   AT NODE       9441   DOF  2
   INSTANCE: BLOCK-1                                                                         
  CORRESPONDING RESIDUAL FORCE      4.809E-15
 LARGEST INCREMENT OF DISP.         1.510E-08   AT NODE       1891   DOF  2
   INSTANCE: BLOCK-1                                                                         
 LARGEST CORRECTION TO DISP.       -2.856E-09   AT NODE         57   DOF  2
   INSTANCE: BLOCK-1                                                                         
          THE FORCE     EQUILIBRIUM RESPONSE WAS LINEAR IN THIS INCREMENT

 AVERAGE MOMENT                      0.00       TIME AVG. MOMENT      1.000E-02
 ALL MOMENT    RESIDUALS ARE ZERO
 ALL ROTATION INCREMENTS ARE ZERO
 ALL CORRECTION TO ROTATION ARE ZERO
          THERE IS ZERO MOMENT    EVERYWHERE

 ITERATION SUMMARY FOR THE INCREMENT:   1 TOTAL ITERATIONS, OF WHICH
   0 ARE SEVERE DISCONTINUITY ITERATIONS AND  1 ARE EQUILIBRIUM ITERATIONS.

 TIME INCREMENT COMPLETED  1.000E-07,  FRACTION OF STEP COMPLETED  1.600E-02
 STEP TIME COMPLETED       1.600E-06,  TOTAL TIME COMPLETED        1.600E-06


  INCREMENT    17 STARTS. ATTEMPT NUMBER  1, TIME INCREMENT  1.000E-07
 
	SYMMETRIC DIRECT SPARSE SOLVER RUNNING ON
 	1 HOST x 1 MPI RANK PER HOST x 2 THREADS PER RANK
        NUMBER OF EQUATIONS:  51912
        NUMBER OF RHS:        1
        NUMBER OF FLOPS:      4.498e+09
        SOLVER ELAPSED TIME:  64ms

               CONVERGENCE CHECKS FOR EQUILIBRIUM ITERATION     1


 AVERAGE FORCE                      1.798E-02   TIME AVG. FORCE       1.534E-02
 LARGEST SCALED RESIDUAL FORCE      4.246E-15   AT NODE       9448   DOF  2
   INSTANCE: BLOCK-1                                                                         
  CORRESPONDING RESIDUAL FORCE      4.246E-15
 LARGEST INCREMENT OF DISP.         1.640E-08   AT NODE       1891   DOF  2
   INSTANCE: BLOCK-1                                                                         
 LARGEST CORRECTION TO DISP.       -3.352E-09   AT NODE        573   DOF  2
   INSTANCE: BLOCK-1                                                                         
          THE FORCE     EQUILIBRIUM RESPONSE WAS LINEAR IN THIS INCREMENT

 AVERAGE MOMENT                      0.00       TIME AVG. MOMENT      1.000E-02
 ALL MOMENT    RESIDUALS ARE ZERO
 ALL ROTATION INCREMENTS ARE ZERO
 ALL CORRECTION TO ROTATION ARE ZERO
          THERE IS ZERO MOMENT    EVERYWHERE

 ITERATION SUMMARY FOR THE INCREMENT:   1 TOTAL ITERATIONS, OF WHICH
   0 ARE SEVERE DISCONTINUITY ITERATIONS AND  1 ARE EQUILIBRIUM ITERATIONS.

 TIME INCREMENT COMPLETED  1.000E-07,  FRACTION OF STEP COMPLETED  1.700E-02
 STEP TIME COMPLETED       1.700E-06,  TOTAL TIME COMPLETED        1.700E-06


  INCREMENT    18 STARTS. ATTEMPT NUMBER  1, TIME INCREMENT  1.000E-07
 
	SYMMETRIC DIRECT SPARSE SOLVER RUNNING ON
 	1 HOST x 1 MPI RANK PER HOST x 2 THREADS PER RANK
        NUMBER OF EQUATIONS:  51912
        NUMBER OF RHS:        1
        NUMBER OF FLOPS:      4.498e+09
        SOLVER ELAPSED TIME:  57ms

               CONVERGENCE CHECKS FOR EQUILIBRIUM ITERATION     1


 AVERAGE FORCE                      1.808E-02   TIME AVG. FORCE       1.549E-02
 LARGEST SCALED RESIDUAL FORCE      6.963E-15   AT NODE      11623   DOF  2
   INSTANCE: BLOCK-1                                                                         
  CORRESPONDING RESIDUAL FORCE      6.963E-15
 LARGEST INCREMENT OF DISP.        -1.495E-08   AT NODE         12   DOF  2
   INSTANCE: BLOCK-1                                                                         
 LARGEST CORRECTION TO DISP.        3.930E-09   AT NODE          5   DOF  2
   INSTANCE: BLOCK-1                                                                         
          THE FORCE     EQUILIBRIUM RESPONSE WAS LINEAR IN THIS INCREMENT

 AVERAGE MOMENT                      0.00       TIME AVG. MOMENT      1.000E-02
 ALL MOMENT    RESIDUALS ARE ZERO
 ALL ROTATION INCREMENTS ARE ZERO
 ALL CORRECTION TO ROTATION ARE ZERO
          THERE IS ZERO MOMENT    EVERYWHERE

 ITERATION SUMMARY FOR THE INCREMENT:   1 TOTAL ITERATIONS, OF WHICH
   0 ARE SEVERE DISCONTINUITY ITERATIONS AND  1 ARE EQUILIBRIUM ITERATIONS.

 TIME INCREMENT COMPLETED  1.000E-07,  FRACTION OF STEP COMPLETED  1.800E-02
 STEP TIME COMPLETED       1.800E-06,  TOTAL TIME COMPLETED        1.800E-06


  INCREMENT    19 STARTS. ATTEMPT NUMBER  1, TIME INCREMENT  1.000E-07
 
	SYMMETRIC DIRECT SPARSE SOLVER RUNNING ON
 	1 HOST x 1 MPI RANK PER HOST x 2 THREADS PER RANK
        NUMBER OF EQUATIONS:  51912
        NUMBER OF RHS:        1
        NUMBER OF FLOPS:      4.498e+09
        SOLVER ELAPSED TIME:  55ms

               CONVERGENCE CHECKS FOR EQUILIBRIUM ITERATION     1


 AVERAGE FORCE                      1.818E-02   TIME AVG. FORCE       1.563E-02
 LARGEST SCALED RESIDUAL FORCE      4.164E-15   AT NODE      11802   DOF  2
   INSTANCE: BLOCK-1                                                                         
  CORRESPONDING RESIDUAL FORCE      4.164E-15
 LARGEST INCREMENT OF DISP.         1.743E-08   AT NODE        196   DOF  2
   INSTANCE: BLOCK-1                                                                         
 LARGEST CORRECTION TO DISP.       -3.187E-09   AT NODE        196   DOF  2
   INSTANCE: BLOCK-1                                                                         
          THE FORCE     EQUILIBRIUM RESPONSE WAS LINEAR IN THIS INCREMENT

 AVERAGE MOMENT                      0.00       TIME AVG. MOMENT      1.000E-02
 ALL MOMENT    RESIDUALS ARE ZERO
 ALL ROTATION INCREMENTS ARE ZERO
 ALL CORRECTION TO ROTATION ARE ZERO
          THERE IS ZERO MOMENT    EVERYWHERE

 ITERATION SUMMARY FOR THE INCREMENT:   1 TOTAL ITERATIONS, OF WHICH
   0 ARE SEVERE DISCONTINUITY ITERATIONS AND  1 ARE EQUILIBRIUM ITERATIONS.

 TIME INCREMENT COMPLETED  1.000E-07,  FRACTION OF STEP COMPLETED  1.900E-02
 STEP TIME COMPLETED       1.900E-06,  TOTAL TIME COMPLETED        1.900E-06


  INCREMENT    20 STARTS. ATTEMPT NUMBER  1, TIME INCREMENT  1.000E-07
 
	SYMMETRIC DIRECT SPARSE SOLVER RUNNING ON
 	1 HOST x 1 MPI RANK PER HOST x 2 THREADS PER RANK
        NUMBER OF EQUATIONS:  51912
        NUMBER OF RHS:        1
        NUMBER OF FLOPS:      4.498e+09
        SOLVER ELAPSED TIME:  71ms

               CONVERGENCE CHECKS FOR EQUILIBRIUM ITERATION     1


 AVERAGE FORCE                      1.833E-02   TIME AVG. FORCE       1.577E-02
 LARGEST SCALED RESIDUAL FORCE     -5.338E-15   AT NODE      11767   DOF  2
   INSTANCE: BLOCK-1                                                                         
  CORRESPONDING RESIDUAL FORCE     -5.338E-15
 LARGEST INCREMENT OF DISP.        -1.586E-08   AT NODE        573   DOF  2
   INSTANCE: BLOCK-1                                                                         
 LARGEST CORRECTION TO DISP.        3.597E-09   AT NODE        573   DOF  2
   INSTANCE: BLOCK-1                                                                         
          THE FORCE     EQUILIBRIUM RESPONSE WAS LINEAR IN THIS INCREMENT

 AVERAGE MOMENT                      0.00       TIME AVG. MOMENT      1.000E-02
 ALL MOMENT    RESIDUALS ARE ZERO
 ALL ROTATION INCREMENTS ARE ZERO
 ALL CORRECTION TO ROTATION ARE ZERO
          THERE IS ZERO MOMENT    EVERYWHERE

 ITERATION SUMMARY FOR THE INCREMENT:   1 TOTAL ITERATIONS, OF WHICH
   0 ARE SEVERE DISCONTINUITY ITERATIONS AND  1 ARE EQUILIBRIUM ITERATIONS.

 TIME INCREMENT COMPLETED  1.000E-07,  FRACTION OF STEP COMPLETED  2.000E-02
 STEP TIME COMPLETED       2.000E-06,  TOTAL TIME COMPLETED        2.000E-06


  INCREMENT    21 STARTS. ATTEMPT NUMBER  1, TIME INCREMENT  1.000E-07
 
	SYMMETRIC DIRECT SPARSE SOLVER RUNNING ON
 	1 HOST x 1 MPI RANK PER HOST x 2 THREADS PER RANK
        NUMBER OF EQUATIONS:  51912
        NUMBER OF RHS:        1
        NUMBER OF FLOPS:      4.498e+09
        SOLVER ELAPSED TIME:  62ms

               CONVERGENCE CHECKS FOR EQUILIBRIUM ITERATION     1


 AVERAGE FORCE                      1.847E-02   TIME AVG. FORCE       1.590E-02
 LARGEST SCALED RESIDUAL FORCE      5.228E-15   AT NODE      12146   DOF  2
   INSTANCE: BLOCK-1                                                                         
  CORRESPONDING RESIDUAL FORCE      5.228E-15
 LARGEST INCREMENT OF DISP.        -1.480E-08   AT NODE       2609   DOF  2
   INSTANCE: BLOCK-1                                                                         
 LARGEST CORRECTION TO DISP.       -2.420E-09   AT NODE          5   DOF  2
   INSTANCE: BLOCK-1                                                                         
          THE FORCE     EQUILIBRIUM RESPONSE WAS LINEAR IN THIS INCREMENT

 AVERAGE MOMENT                      0.00       TIME AVG. MOMENT      1.000E-02
 ALL MOMENT    RESIDUALS ARE ZERO
 ALL ROTATION INCREMENTS ARE ZERO
 ALL CORRECTION TO ROTATION ARE ZERO
          THERE IS ZERO MOMENT    EVERYWHERE

 ITERATION SUMMARY FOR THE INCREMENT:   1 TOTAL ITERATIONS, OF WHICH
   0 ARE SEVERE DISCONTINUITY ITERATIONS AND  1 ARE EQUILIBRIUM ITERATIONS.

 TIME INCREMENT COMPLETED  1.000E-07,  FRACTION OF STEP COMPLETED  2.100E-02
 STEP TIME COMPLETED       2.100E-06,  TOTAL TIME COMPLETED        2.100E-06


  INCREMENT    22 STARTS. ATTEMPT NUMBER  1, TIME INCREMENT  1.000E-07
 
	SYMMETRIC DIRECT SPARSE SOLVER RUNNING ON
 	1 HOST x 1 MPI RANK PER HOST x 2 THREADS PER RANK
        NUMBER OF EQUATIONS:  51912
        NUMBER OF RHS:        1
        NUMBER OF FLOPS:      4.498e+09
        SOLVER ELAPSED TIME:  71ms

               CONVERGENCE CHECKS FOR EQUILIBRIUM ITERATION     1


 AVERAGE FORCE                      1.863E-02   TIME AVG. FORCE       1.602E-02
 LARGEST SCALED RESIDUAL FORCE     -5.688E-15   AT NODE      11048   DOF  2
   INSTANCE: BLOCK-1                                                                         
  CORRESPONDING RESIDUAL FORCE     -5.688E-15
 LARGEST INCREMENT OF DISP.        -1.451E-08   AT NODE       2429   DOF  2
   INSTANCE: BLOCK-1                                                                         
 LARGEST CORRECTION TO DISP.        2.820E-09   AT NODE        196   DOF  2
   INSTANCE: BLOCK-1                                                                         
          THE FORCE     EQUILIBRIUM RESPONSE WAS LINEAR IN THIS INCREMENT

 AVERAGE MOMENT                      0.00       TIME AVG. MOMENT      1.000E-02
 ALL MOMENT    RESIDUALS ARE ZERO
 ALL ROTATION INCREMENTS ARE ZERO
 ALL CORRECTION TO ROTATION ARE ZERO
          THERE IS ZERO MOMENT    EVERYWHERE

 ITERATION SUMMARY FOR THE INCREMENT:   1 TOTAL ITERATIONS, OF WHICH
   0 ARE SEVERE DISCONTINUITY ITERATIONS AND  1 ARE EQUILIBRIUM ITERATIONS.

 TIME INCREMENT COMPLETED  1.000E-07,  FRACTION OF STEP COMPLETED  2.200E-02
 STEP TIME COMPLETED       2.200E-06,  TOTAL TIME COMPLETED        2.200E-06


  INCREMENT    23 STARTS. ATTEMPT NUMBER  1, TIME INCREMENT  1.000E-07
 
	SYMMETRIC DIRECT SPARSE SOLVER RUNNING ON
 	1 HOST x 1 MPI RANK PER HOST x 2 THREADS PER RANK
        NUMBER OF EQUATIONS:  51912
        NUMBER OF RHS:        1
        NUMBER OF FLOPS:      4.498e+09
        SOLVER ELAPSED TIME:  59ms

               CONVERGENCE CHECKS FOR EQUILIBRIUM ITERATION     1


 AVERAGE FORCE                      1.880E-02   TIME AVG. FORCE       1.614E-02
 LARGEST SCALED RESIDUAL FORCE     -5.385E-15   AT NODE      11047   DOF  2
   INSTANCE: BLOCK-1                                                                         
  CORRESPONDING RESIDUAL FORCE     -5.385E-15
 LARGEST INCREMENT OF DISP.         1.399E-08   AT NODE       4248   DOF  2
   INSTANCE: BLOCK-1                                                                         
 LARGEST CORRECTION TO DISP.        3.415E-09   AT NODE        196   DOF  2
   INSTANCE: BLOCK-1                                                                         
          THE FORCE     EQUILIBRIUM RESPONSE WAS LINEAR IN THIS INCREMENT

 AVERAGE MOMENT                      0.00       TIME AVG. MOMENT      1.000E-02
 ALL MOMENT    RESIDUALS ARE ZERO
 ALL ROTATION INCREMENTS ARE ZERO
 ALL CORRECTION TO ROTATION ARE ZERO
          THERE IS ZERO MOMENT    EVERYWHERE

 ITERATION SUMMARY FOR THE INCREMENT:   1 TOTAL ITERATIONS, OF WHICH
   0 ARE SEVERE DISCONTINUITY ITERATIONS AND  1 ARE EQUILIBRIUM ITERATIONS.

 TIME INCREMENT COMPLETED  1.000E-07,  FRACTION OF STEP COMPLETED  2.300E-02
 STEP TIME COMPLETED       2.300E-06,  TOTAL TIME COMPLETED        2.300E-06


  INCREMENT    24 STARTS. ATTEMPT NUMBER  1, TIME INCREMENT  1.000E-07
 
	SYMMETRIC DIRECT SPARSE SOLVER RUNNING ON
 	1 HOST x 1 MPI RANK PER HOST x 2 THREADS PER RANK
        NUMBER OF EQUATIONS:  51912
        NUMBER OF RHS:        1
        NUMBER OF FLOPS:      4.498e+09
        SOLVER ELAPSED TIME:  74ms

               CONVERGENCE CHECKS FOR EQUILIBRIUM ITERATION     1


 AVERAGE FORCE                      1.896E-02   TIME AVG. FORCE       1.626E-02
 LARGEST SCALED RESIDUAL FORCE     -5.543E-15   AT NODE       9382   DOF  2
   INSTANCE: BLOCK-1                                                                         
  CORRESPONDING RESIDUAL FORCE     -5.543E-15
 LARGEST INCREMENT OF DISP.         1.387E-08   AT NODE        238   DOF  2
   INSTANCE: BLOCK-1                                                                         
 LARGEST CORRECTION TO DISP.       -3.075E-09   AT NODE          5   DOF  1
   INSTANCE: BLOCK-1                                                                         
          THE FORCE     EQUILIBRIUM RESPONSE WAS LINEAR IN THIS INCREMENT

 AVERAGE MOMENT                      0.00       TIME AVG. MOMENT      1.000E-02
 ALL MOMENT    RESIDUALS ARE ZERO
 ALL ROTATION INCREMENTS ARE ZERO
 ALL CORRECTION TO ROTATION ARE ZERO
          THERE IS ZERO MOMENT    EVERYWHERE

 ITERATION SUMMARY FOR THE INCREMENT:   1 TOTAL ITERATIONS, OF WHICH
   0 ARE SEVERE DISCONTINUITY ITERATIONS AND  1 ARE EQUILIBRIUM ITERATIONS.

 TIME INCREMENT COMPLETED  1.000E-07,  FRACTION OF STEP COMPLETED  2.400E-02
 STEP TIME COMPLETED       2.400E-06,  TOTAL TIME COMPLETED        2.400E-06


  INCREMENT    25 STARTS. ATTEMPT NUMBER  1, TIME INCREMENT  1.000E-07
 
	SYMMETRIC DIRECT SPARSE SOLVER RUNNING ON
 	1 HOST x 1 MPI RANK PER HOST x 2 THREADS PER RANK
        NUMBER OF EQUATIONS:  51912
        NUMBER OF RHS:        1
        NUMBER OF FLOPS:      4.498e+09
        SOLVER ELAPSED TIME:  63ms

               CONVERGENCE CHECKS FOR EQUILIBRIUM ITERATION     1


 AVERAGE FORCE                      1.913E-02   TIME AVG. FORCE       1.637E-02
 LARGEST SCALED RESIDUAL FORCE     -5.618E-15   AT NODE      12146   DOF  2
   INSTANCE: BLOCK-1                                                                         
  CORRESPONDING RESIDUAL FORCE     -5.618E-15
 LARGEST INCREMENT OF DISP.         1.303E-08   AT NODE        164   DOF  2
   INSTANCE: BLOCK-1                                                                         
 LARGEST CORRECTION TO DISP.        2.093E-09   AT NODE          5   DOF  2
   INSTANCE: BLOCK-1                                                                         
          THE FORCE     EQUILIBRIUM RESPONSE WAS LINEAR IN THIS INCREMENT

 AVERAGE MOMENT                      0.00       TIME AVG. MOMENT      1.000E-02
 ALL MOMENT    RESIDUALS ARE ZERO
 ALL ROTATION INCREMENTS ARE ZERO
 ALL CORRECTION TO ROTATION ARE ZERO
          THERE IS ZERO MOMENT    EVERYWHERE

 ITERATION SUMMARY FOR THE INCREMENT:   1 TOTAL ITERATIONS, OF WHICH
   0 ARE SEVERE DISCONTINUITY ITERATIONS AND  1 ARE EQUILIBRIUM ITERATIONS.

 TIME INCREMENT COMPLETED  1.000E-07,  FRACTION OF STEP COMPLETED  2.500E-02
 STEP TIME COMPLETED       2.500E-06,  TOTAL TIME COMPLETED        2.500E-06


  INCREMENT    26 STARTS. ATTEMPT NUMBER  1, TIME INCREMENT  1.000E-07
 
	SYMMETRIC DIRECT SPARSE SOLVER RUNNING ON
 	1 HOST x 1 MPI RANK PER HOST x 2 THREADS PER RANK
        NUMBER OF EQUATIONS:  51912
        NUMBER OF RHS:        1
        NUMBER OF FLOPS:      4.498e+09
        SOLVER ELAPSED TIME:  61ms

               CONVERGENCE CHECKS FOR EQUILIBRIUM ITERATION     1


 AVERAGE FORCE                      1.927E-02   TIME AVG. FORCE       1.649E-02
 LARGEST SCALED RESIDUAL FORCE      5.302E-15   AT NODE      11564   DOF  2
   INSTANCE: BLOCK-1                                                                         
  CORRESPONDING RESIDUAL FORCE      5.302E-15
 LARGEST INCREMENT OF DISP.         1.620E-08   AT NODE        164   DOF  2
   INSTANCE: BLOCK-1                                                                         
 LARGEST CORRECTION TO DISP.        2.554E-09   AT NODE          5   DOF  1
   INSTANCE: BLOCK-1                                                                         
          THE FORCE     EQUILIBRIUM RESPONSE WAS LINEAR IN THIS INCREMENT

 AVERAGE MOMENT                      0.00       TIME AVG. MOMENT      1.000E-02
 ALL MOMENT    RESIDUALS ARE ZERO
 ALL ROTATION INCREMENTS ARE ZERO
 ALL CORRECTION TO ROTATION ARE ZERO
          THERE IS ZERO MOMENT    EVERYWHERE

 ITERATION SUMMARY FOR THE INCREMENT:   1 TOTAL ITERATIONS, OF WHICH
   0 ARE SEVERE DISCONTINUITY ITERATIONS AND  1 ARE EQUILIBRIUM ITERATIONS.

 TIME INCREMENT COMPLETED  1.000E-07,  FRACTION OF STEP COMPLETED  2.600E-02
 STEP TIME COMPLETED       2.600E-06,  TOTAL TIME COMPLETED        2.600E-06


  INCREMENT    27 STARTS. ATTEMPT NUMBER  1, TIME INCREMENT  1.000E-07
 
	SYMMETRIC DIRECT SPARSE SOLVER RUNNING ON
 	1 HOST x 1 MPI RANK PER HOST x 2 THREADS PER RANK
        NUMBER OF EQUATIONS:  51912
        NUMBER OF RHS:        1
        NUMBER OF FLOPS:      4.498e+09
        SOLVER ELAPSED TIME:  56ms

               CONVERGENCE CHECKS FOR EQUILIBRIUM ITERATION     1


 AVERAGE FORCE                      1.944E-02   TIME AVG. FORCE       1.659E-02
 LARGEST SCALED RESIDUAL FORCE      5.499E-15   AT NODE      11049   DOF  2
   INSTANCE: BLOCK-1                                                                         
  CORRESPONDING RESIDUAL FORCE      5.499E-15
 LARGEST INCREMENT OF DISP.         1.418E-08   AT NODE        164   DOF  2
   INSTANCE: BLOCK-1                                                                         
 LARGEST CORRECTION TO DISP.        2.967E-09   AT NODE          5   DOF  1
   INSTANCE: BLOCK-1                                                                         
          THE FORCE     EQUILIBRIUM RESPONSE WAS LINEAR IN THIS INCREMENT

 AVERAGE MOMENT                      0.00       TIME AVG. MOMENT      1.000E-02
 ALL MOMENT    RESIDUALS ARE ZERO
 ALL ROTATION INCREMENTS ARE ZERO
 ALL CORRECTION TO ROTATION ARE ZERO
          THERE IS ZERO MOMENT    EVERYWHERE

 ITERATION SUMMARY FOR THE INCREMENT:   1 TOTAL ITERATIONS, OF WHICH
   0 ARE SEVERE DISCONTINUITY ITERATIONS AND  1 ARE EQUILIBRIUM ITERATIONS.

 TIME INCREMENT COMPLETED  1.000E-07,  FRACTION OF STEP COMPLETED  2.700E-02
 STEP TIME COMPLETED       2.700E-06,  TOTAL TIME COMPLETED        2.700E-06


  INCREMENT    28 STARTS. ATTEMPT NUMBER  1, TIME INCREMENT  1.000E-07
 
	SYMMETRIC DIRECT SPARSE SOLVER RUNNING ON
 	1 HOST x 1 MPI RANK PER HOST x 2 THREADS PER RANK
        NUMBER OF EQUATIONS:  51912
        NUMBER OF RHS:        1
        NUMBER OF FLOPS:      4.498e+09
        SOLVER ELAPSED TIME:  64ms

               CONVERGENCE CHECKS FOR EQUILIBRIUM ITERATION     1


 AVERAGE FORCE                      1.962E-02   TIME AVG. FORCE       1.670E-02
 LARGEST SCALED RESIDUAL FORCE      6.096E-15   AT NODE      12685   DOF  2
   INSTANCE: BLOCK-1                                                                         
  CORRESPONDING RESIDUAL FORCE      6.096E-15
 LARGEST INCREMENT OF DISP.         1.404E-08   AT NODE        165   DOF  2
   INSTANCE: BLOCK-1                                                                         
 LARGEST CORRECTION TO DISP.       -3.177E-09   AT NODE          5   DOF  2
   INSTANCE: BLOCK-1                                                                         
          THE FORCE     EQUILIBRIUM RESPONSE WAS LINEAR IN THIS INCREMENT

 AVERAGE MOMENT                      0.00       TIME AVG. MOMENT      1.000E-02
 ALL MOMENT    RESIDUALS ARE ZERO
 ALL ROTATION INCREMENTS ARE ZERO
 ALL CORRECTION TO ROTATION ARE ZERO
          THERE IS ZERO MOMENT    EVERYWHERE

 ITERATION SUMMARY FOR THE INCREMENT:   1 TOTAL ITERATIONS, OF WHICH
   0 ARE SEVERE DISCONTINUITY ITERATIONS AND  1 ARE EQUILIBRIUM ITERATIONS.

 TIME INCREMENT COMPLETED  1.000E-07,  FRACTION OF STEP COMPLETED  2.800E-02
 STEP TIME COMPLETED       2.800E-06,  TOTAL TIME COMPLETED        2.800E-06


  INCREMENT    29 STARTS. ATTEMPT NUMBER  1, TIME INCREMENT  1.000E-07
 
	SYMMETRIC DIRECT SPARSE SOLVER RUNNING ON
 	1 HOST x 1 MPI RANK PER HOST x 2 THREADS PER RANK
        NUMBER OF EQUATIONS:  51912
        NUMBER OF RHS:        1
        NUMBER OF FLOPS:      4.498e+09
        SOLVER ELAPSED TIME:  65ms

               CONVERGENCE CHECKS FOR EQUILIBRIUM ITERATION     1


 AVERAGE FORCE                      1.980E-02   TIME AVG. FORCE       1.681E-02
 LARGEST SCALED RESIDUAL FORCE     -7.049E-15   AT NODE      11949   DOF  2
   INSTANCE: BLOCK-1                                                                         
  CORRESPONDING RESIDUAL FORCE     -7.049E-15
 LARGEST INCREMENT OF DISP.         1.377E-08   AT NODE        237   DOF  2
   INSTANCE: BLOCK-1                                                                         
 LARGEST CORRECTION TO DISP.       -2.150E-09   AT NODE          5   DOF  1
   INSTANCE: BLOCK-1                                                                         
          THE FORCE     EQUILIBRIUM RESPONSE WAS LINEAR IN THIS INCREMENT

 AVERAGE MOMENT                      0.00       TIME AVG. MOMENT      1.000E-02
 ALL MOMENT    RESIDUALS ARE ZERO
 ALL ROTATION INCREMENTS ARE ZERO
 ALL CORRECTION TO ROTATION ARE ZERO
          THERE IS ZERO MOMENT    EVERYWHERE

 ITERATION SUMMARY FOR THE INCREMENT:   1 TOTAL ITERATIONS, OF WHICH
   0 ARE SEVERE DISCONTINUITY ITERATIONS AND  1 ARE EQUILIBRIUM ITERATIONS.

 TIME INCREMENT COMPLETED  1.000E-07,  FRACTION OF STEP COMPLETED  2.900E-02
 STEP TIME COMPLETED       2.900E-06,  TOTAL TIME COMPLETED        2.900E-06


  INCREMENT    30 STARTS. ATTEMPT NUMBER  1, TIME INCREMENT  1.000E-07
 
	SYMMETRIC DIRECT SPARSE SOLVER RUNNING ON
 	1 HOST x 1 MPI RANK PER HOST x 2 THREADS PER RANK
        NUMBER OF EQUATIONS:  51912
        NUMBER OF RHS:        1
        NUMBER OF FLOPS:      4.498e+09
        SOLVER ELAPSED TIME:  63ms

               CONVERGENCE CHECKS FOR EQUILIBRIUM ITERATION     1


 AVERAGE FORCE                      1.994E-02   TIME AVG. FORCE       1.691E-02
 LARGEST SCALED RESIDUAL FORCE      8.537E-15   AT NODE      12732   DOF  2
   INSTANCE: BLOCK-1                                                                         
  CORRESPONDING RESIDUAL FORCE      8.537E-15
 LARGEST INCREMENT OF DISP.         1.391E-08   AT NODE       2090   DOF  2
   INSTANCE: BLOCK-1                                                                         
 LARGEST CORRECTION TO DISP.        2.442E-09   AT NODE          5   DOF  2
   INSTANCE: BLOCK-1                                                                         
          THE FORCE     EQUILIBRIUM RESPONSE WAS LINEAR IN THIS INCREMENT

 AVERAGE MOMENT                      0.00       TIME AVG. MOMENT      1.000E-02
 ALL MOMENT    RESIDUALS ARE ZERO
 ALL ROTATION INCREMENTS ARE ZERO
 ALL CORRECTION TO ROTATION ARE ZERO
          THERE IS ZERO MOMENT    EVERYWHERE

 ITERATION SUMMARY FOR THE INCREMENT:   1 TOTAL ITERATIONS, OF WHICH
   0 ARE SEVERE DISCONTINUITY ITERATIONS AND  1 ARE EQUILIBRIUM ITERATIONS.

 TIME INCREMENT COMPLETED  1.000E-07,  FRACTION OF STEP COMPLETED  3.000E-02
 STEP TIME COMPLETED       3.000E-06,  TOTAL TIME COMPLETED        3.000E-06


  INCREMENT    31 STARTS. ATTEMPT NUMBER  1, TIME INCREMENT  1.000E-07
 
	SYMMETRIC DIRECT SPARSE SOLVER RUNNING ON
 	1 HOST x 1 MPI RANK PER HOST x 2 THREADS PER RANK
        NUMBER OF EQUATIONS:  51912
        NUMBER OF RHS:        1
        NUMBER OF FLOPS:      4.498e+09
        SOLVER ELAPSED TIME:  58ms

               CONVERGENCE CHECKS FOR EQUILIBRIUM ITERATION     1


 AVERAGE FORCE                      2.002E-02   TIME AVG. FORCE       1.701E-02
 LARGEST SCALED RESIDUAL FORCE      8.318E-15   AT NODE      11429   DOF  2
   INSTANCE: BLOCK-1                                                                         
  CORRESPONDING RESIDUAL FORCE      8.318E-15
 LARGEST INCREMENT OF DISP.        -1.374E-08   AT NODE       2609   DOF  2
   INSTANCE: BLOCK-1                                                                         
 LARGEST CORRECTION TO DISP.        3.255E-09   AT NODE          5   DOF  2
   INSTANCE: BLOCK-1                                                                         
          THE FORCE     EQUILIBRIUM RESPONSE WAS LINEAR IN THIS INCREMENT

 AVERAGE MOMENT                      0.00       TIME AVG. MOMENT      1.000E-02
 ALL MOMENT    RESIDUALS ARE ZERO
 ALL ROTATION INCREMENTS ARE ZERO
 ALL CORRECTION TO ROTATION ARE ZERO
          THERE IS ZERO MOMENT    EVERYWHERE

 ITERATION SUMMARY FOR THE INCREMENT:   1 TOTAL ITERATIONS, OF WHICH
   0 ARE SEVERE DISCONTINUITY ITERATIONS AND  1 ARE EQUILIBRIUM ITERATIONS.

 TIME INCREMENT COMPLETED  1.000E-07,  FRACTION OF STEP COMPLETED  3.100E-02
 STEP TIME COMPLETED       3.100E-06,  TOTAL TIME COMPLETED        3.100E-06


  INCREMENT    32 STARTS. ATTEMPT NUMBER  1, TIME INCREMENT  1.000E-07
 
	SYMMETRIC DIRECT SPARSE SOLVER RUNNING ON
 	1 HOST x 1 MPI RANK PER HOST x 2 THREADS PER RANK
        NUMBER OF EQUATIONS:  51912
        NUMBER OF RHS:        1
        NUMBER OF FLOPS:      4.498e+09
        SOLVER ELAPSED TIME:  55ms

               CONVERGENCE CHECKS FOR EQUILIBRIUM ITERATION     1


 AVERAGE FORCE                      2.006E-02   TIME AVG. FORCE       1.711E-02
 LARGEST SCALED RESIDUAL FORCE      9.027E-15   AT NODE      11767   DOF  2
   INSTANCE: BLOCK-1                                                                         
  CORRESPONDING RESIDUAL FORCE      9.027E-15
 LARGEST INCREMENT OF DISP.        -1.353E-08   AT NODE       1794   DOF  2
   INSTANCE: BLOCK-1                                                                         
 LARGEST CORRECTION TO DISP.        1.872E-09   AT NODE        194   DOF  2
   INSTANCE: BLOCK-1                                                                         
          THE FORCE     EQUILIBRIUM RESPONSE WAS LINEAR IN THIS INCREMENT

 AVERAGE MOMENT                      0.00       TIME AVG. MOMENT      1.000E-02
 ALL MOMENT    RESIDUALS ARE ZERO
 ALL ROTATION INCREMENTS ARE ZERO
 ALL CORRECTION TO ROTATION ARE ZERO
          THERE IS ZERO MOMENT    EVERYWHERE

 ITERATION SUMMARY FOR THE INCREMENT:   1 TOTAL ITERATIONS, OF WHICH
   0 ARE SEVERE DISCONTINUITY ITERATIONS AND  1 ARE EQUILIBRIUM ITERATIONS.

 TIME INCREMENT COMPLETED  1.000E-07,  FRACTION OF STEP COMPLETED  3.200E-02
 STEP TIME COMPLETED       3.200E-06,  TOTAL TIME COMPLETED        3.200E-06


  INCREMENT    33 STARTS. ATTEMPT NUMBER  1, TIME INCREMENT  1.000E-07
 
	SYMMETRIC DIRECT SPARSE SOLVER RUNNING ON
 	1 HOST x 1 MPI RANK PER HOST x 2 THREADS PER RANK
        NUMBER OF EQUATIONS:  51912
        NUMBER OF RHS:        1
        NUMBER OF FLOPS:      4.498e+09
        SOLVER ELAPSED TIME:  59ms

               CONVERGENCE CHECKS FOR EQUILIBRIUM ITERATION     1


 AVERAGE FORCE                      2.008E-02   TIME AVG. FORCE       1.720E-02
 LARGEST SCALED RESIDUAL FORCE     -8.217E-15   AT NODE      10458   DOF  2
   INSTANCE: BLOCK-1                                                                         
  CORRESPONDING RESIDUAL FORCE     -8.217E-15
 LARGEST INCREMENT OF DISP.         1.429E-08   AT NODE          5   DOF  2
   INSTANCE: BLOCK-1                                                                         
 LARGEST CORRECTION TO DISP.       -2.960E-09   AT NODE          5   DOF  2
   INSTANCE: BLOCK-1                                                                         
          THE FORCE     EQUILIBRIUM RESPONSE WAS LINEAR IN THIS INCREMENT

 AVERAGE MOMENT                      0.00       TIME AVG. MOMENT      1.000E-02
 ALL MOMENT    RESIDUALS ARE ZERO
 ALL ROTATION INCREMENTS ARE ZERO
 ALL CORRECTION TO ROTATION ARE ZERO
          THERE IS ZERO MOMENT    EVERYWHERE

 ITERATION SUMMARY FOR THE INCREMENT:   1 TOTAL ITERATIONS, OF WHICH
   0 ARE SEVERE DISCONTINUITY ITERATIONS AND  1 ARE EQUILIBRIUM ITERATIONS.

 TIME INCREMENT COMPLETED  1.000E-07,  FRACTION OF STEP COMPLETED  3.300E-02
 STEP TIME COMPLETED       3.300E-06,  TOTAL TIME COMPLETED        3.300E-06


  INCREMENT    34 STARTS. ATTEMPT NUMBER  1, TIME INCREMENT  1.000E-07
 
	SYMMETRIC DIRECT SPARSE SOLVER RUNNING ON
 	1 HOST x 1 MPI RANK PER HOST x 2 THREADS PER RANK
        NUMBER OF EQUATIONS:  51912
        NUMBER OF RHS:        1
        NUMBER OF FLOPS:      4.498e+09
        SOLVER ELAPSED TIME:  49ms

               CONVERGENCE CHECKS FOR EQUILIBRIUM ITERATION     1


 AVERAGE FORCE                      2.010E-02   TIME AVG. FORCE       1.728E-02
 LARGEST SCALED RESIDUAL FORCE      8.255E-15   AT NODE      11058   DOF  2
   INSTANCE: BLOCK-1                                                                         
  CORRESPONDING RESIDUAL FORCE      8.255E-15
 LARGEST INCREMENT OF DISP.         1.374E-08   AT NODE       1865   DOF  2
   INSTANCE: BLOCK-1                                                                         
 LARGEST CORRECTION TO DISP.       -2.511E-09   AT NODE          5   DOF  2
   INSTANCE: BLOCK-1                                                                         
          THE FORCE     EQUILIBRIUM RESPONSE WAS LINEAR IN THIS INCREMENT

 AVERAGE MOMENT                      0.00       TIME AVG. MOMENT      1.000E-02
 ALL MOMENT    RESIDUALS ARE ZERO
 ALL ROTATION INCREMENTS ARE ZERO
 ALL CORRECTION TO ROTATION ARE ZERO
          THERE IS ZERO MOMENT    EVERYWHERE

 ITERATION SUMMARY FOR THE INCREMENT:   1 TOTAL ITERATIONS, OF WHICH
   0 ARE SEVERE DISCONTINUITY ITERATIONS AND  1 ARE EQUILIBRIUM ITERATIONS.

 TIME INCREMENT COMPLETED  1.000E-07,  FRACTION OF STEP COMPLETED  3.400E-02
 STEP TIME COMPLETED       3.400E-06,  TOTAL TIME COMPLETED        3.400E-06


  INCREMENT    35 STARTS. ATTEMPT NUMBER  1, TIME INCREMENT  1.000E-07
 
	SYMMETRIC DIRECT SPARSE SOLVER RUNNING ON
 	1 HOST x 1 MPI RANK PER HOST x 2 THREADS PER RANK
        NUMBER OF EQUATIONS:  51912
        NUMBER OF RHS:        1
        NUMBER OF FLOPS:      4.498e+09
        SOLVER ELAPSED TIME:  48ms

               CONVERGENCE CHECKS FOR EQUILIBRIUM ITERATION     1


 AVERAGE FORCE                      2.024E-02   TIME AVG. FORCE       1.737E-02
 LARGEST SCALED RESIDUAL FORCE     -9.156E-15   AT NODE      12597   DOF  2
   INSTANCE: BLOCK-1                                                                         
  CORRESPONDING RESIDUAL FORCE     -9.156E-15
 LARGEST INCREMENT OF DISP.         1.380E-08   AT NODE        156   DOF  2
   INSTANCE: BLOCK-1                                                                         
 LARGEST CORRECTION TO DISP.        2.559E-09   AT NODE          5   DOF  3
   INSTANCE: BLOCK-1                                                                         
          THE FORCE     EQUILIBRIUM RESPONSE WAS LINEAR IN THIS INCREMENT

 AVERAGE MOMENT                      0.00       TIME AVG. MOMENT      1.000E-02
 ALL MOMENT    RESIDUALS ARE ZERO
 ALL ROTATION INCREMENTS ARE ZERO
 ALL CORRECTION TO ROTATION ARE ZERO
          THERE IS ZERO MOMENT    EVERYWHERE

 ITERATION SUMMARY FOR THE INCREMENT:   1 TOTAL ITERATIONS, OF WHICH
   0 ARE SEVERE DISCONTINUITY ITERATIONS AND  1 ARE EQUILIBRIUM ITERATIONS.

 TIME INCREMENT COMPLETED  1.000E-07,  FRACTION OF STEP COMPLETED  3.500E-02
 STEP TIME COMPLETED       3.500E-06,  TOTAL TIME COMPLETED        3.500E-06


  INCREMENT    36 STARTS. ATTEMPT NUMBER  1, TIME INCREMENT  1.000E-07
 
	SYMMETRIC DIRECT SPARSE SOLVER RUNNING ON
 	1 HOST x 1 MPI RANK PER HOST x 2 THREADS PER RANK
        NUMBER OF EQUATIONS:  51912
        NUMBER OF RHS:        1
        NUMBER OF FLOPS:      4.498e+09
        SOLVER ELAPSED TIME:  63ms

               CONVERGENCE CHECKS FOR EQUILIBRIUM ITERATION     1


 AVERAGE FORCE                      2.043E-02   TIME AVG. FORCE       1.745E-02
 LARGEST SCALED RESIDUAL FORCE     -8.740E-15   AT NODE       9755   DOF  2
   INSTANCE: BLOCK-1                                                                         
  CORRESPONDING RESIDUAL FORCE     -8.740E-15
 LARGEST INCREMENT OF DISP.         1.436E-08   AT NODE        194   DOF  2
   INSTANCE: BLOCK-1                                                                         
 LARGEST CORRECTION TO DISP.       -2.329E-09   AT NODE          5   DOF  1
   INSTANCE: BLOCK-1                                                                         
          THE FORCE     EQUILIBRIUM RESPONSE WAS LINEAR IN THIS INCREMENT

 AVERAGE MOMENT                      0.00       TIME AVG. MOMENT      1.000E-02
 ALL MOMENT    RESIDUALS ARE ZERO
 ALL ROTATION INCREMENTS ARE ZERO
 ALL CORRECTION TO ROTATION ARE ZERO
          THERE IS ZERO MOMENT    EVERYWHERE

 ITERATION SUMMARY FOR THE INCREMENT:   1 TOTAL ITERATIONS, OF WHICH
   0 ARE SEVERE DISCONTINUITY ITERATIONS AND  1 ARE EQUILIBRIUM ITERATIONS.

 TIME INCREMENT COMPLETED  1.000E-07,  FRACTION OF STEP COMPLETED  3.600E-02
 STEP TIME COMPLETED       3.600E-06,  TOTAL TIME COMPLETED        3.600E-06


  INCREMENT    37 STARTS. ATTEMPT NUMBER  1, TIME INCREMENT  1.000E-07
 
	SYMMETRIC DIRECT SPARSE SOLVER RUNNING ON
 	1 HOST x 1 MPI RANK PER HOST x 2 THREADS PER RANK
        NUMBER OF EQUATIONS:  51912
        NUMBER OF RHS:        1
        NUMBER OF FLOPS:      4.498e+09
        SOLVER ELAPSED TIME:  59ms

               CONVERGENCE CHECKS FOR EQUILIBRIUM ITERATION     1


 AVERAGE FORCE                      2.064E-02   TIME AVG. FORCE       1.754E-02
 LARGEST SCALED RESIDUAL FORCE     -8.843E-15   AT NODE      12676   DOF  2
   INSTANCE: BLOCK-1                                                                         
  CORRESPONDING RESIDUAL FORCE     -8.843E-15
 LARGEST INCREMENT OF DISP.         1.347E-08   AT NODE        161   DOF  2
   INSTANCE: BLOCK-1                                                                         
 LARGEST CORRECTION TO DISP.       -3.569E-09   AT NODE          5   DOF  1
   INSTANCE: BLOCK-1                                                                         
          THE FORCE     EQUILIBRIUM RESPONSE WAS LINEAR IN THIS INCREMENT

 AVERAGE MOMENT                      0.00       TIME AVG. MOMENT      1.000E-02
 ALL MOMENT    RESIDUALS ARE ZERO
 ALL ROTATION INCREMENTS ARE ZERO
 ALL CORRECTION TO ROTATION ARE ZERO
          THERE IS ZERO MOMENT    EVERYWHERE

 ITERATION SUMMARY FOR THE INCREMENT:   1 TOTAL ITERATIONS, OF WHICH
   0 ARE SEVERE DISCONTINUITY ITERATIONS AND  1 ARE EQUILIBRIUM ITERATIONS.

 TIME INCREMENT COMPLETED  1.000E-07,  FRACTION OF STEP COMPLETED  3.700E-02
 STEP TIME COMPLETED       3.700E-06,  TOTAL TIME COMPLETED        3.700E-06


  INCREMENT    38 STARTS. ATTEMPT NUMBER  1, TIME INCREMENT  1.000E-07
 
	SYMMETRIC DIRECT SPARSE SOLVER RUNNING ON
 	1 HOST x 1 MPI RANK PER HOST x 2 THREADS PER RANK
        NUMBER OF EQUATIONS:  51912
        NUMBER OF RHS:        1
        NUMBER OF FLOPS:      4.498e+09
        SOLVER ELAPSED TIME:  69ms

               CONVERGENCE CHECKS FOR EQUILIBRIUM ITERATION     1


 AVERAGE FORCE                      2.092E-02   TIME AVG. FORCE       1.763E-02
 LARGEST SCALED RESIDUAL FORCE     -9.048E-15   AT NODE      10357   DOF  2
   INSTANCE: BLOCK-1                                                                         
  CORRESPONDING RESIDUAL FORCE     -9.048E-15
 LARGEST INCREMENT OF DISP.         1.290E-08   AT NODE        228   DOF  2
   INSTANCE: BLOCK-1                                                                         
 LARGEST CORRECTION TO DISP.       -2.265E-09   AT NODE          5   DOF  3
   INSTANCE: BLOCK-1                                                                         
          THE FORCE     EQUILIBRIUM RESPONSE WAS LINEAR IN THIS INCREMENT

 AVERAGE MOMENT                      0.00       TIME AVG. MOMENT      1.000E-02
 ALL MOMENT    RESIDUALS ARE ZERO
 ALL ROTATION INCREMENTS ARE ZERO
 ALL CORRECTION TO ROTATION ARE ZERO
          THERE IS ZERO MOMENT    EVERYWHERE

 ITERATION SUMMARY FOR THE INCREMENT:   1 TOTAL ITERATIONS, OF WHICH
   0 ARE SEVERE DISCONTINUITY ITERATIONS AND  1 ARE EQUILIBRIUM ITERATIONS.

 TIME INCREMENT COMPLETED  1.000E-07,  FRACTION OF STEP COMPLETED  3.800E-02
 STEP TIME COMPLETED       3.800E-06,  TOTAL TIME COMPLETED        3.800E-06


  INCREMENT    39 STARTS. ATTEMPT NUMBER  1, TIME INCREMENT  1.000E-07
 
	SYMMETRIC DIRECT SPARSE SOLVER RUNNING ON
 	1 HOST x 1 MPI RANK PER HOST x 2 THREADS PER RANK
        NUMBER OF EQUATIONS:  51912
        NUMBER OF RHS:        1
        NUMBER OF FLOPS:      4.498e+09
        SOLVER ELAPSED TIME:  68ms

               CONVERGENCE CHECKS FOR EQUILIBRIUM ITERATION     1


 AVERAGE FORCE                      2.125E-02   TIME AVG. FORCE       1.772E-02
 LARGEST SCALED RESIDUAL FORCE      8.659E-15   AT NODE       9238   DOF  2
   INSTANCE: BLOCK-1                                                                         
  CORRESPONDING RESIDUAL FORCE      8.659E-15
 LARGEST INCREMENT OF DISP.         1.287E-08   AT NODE       2200   DOF  2
   INSTANCE: BLOCK-1                                                                         
 LARGEST CORRECTION TO DISP.        3.004E-09   AT NODE          5   DOF  1
   INSTANCE: BLOCK-1                                                                         
          THE FORCE     EQUILIBRIUM RESPONSE WAS LINEAR IN THIS INCREMENT

 AVERAGE MOMENT                      0.00       TIME AVG. MOMENT      1.000E-02
 ALL MOMENT    RESIDUALS ARE ZERO
 ALL ROTATION INCREMENTS ARE ZERO
 ALL CORRECTION TO ROTATION ARE ZERO
          THERE IS ZERO MOMENT    EVERYWHERE

 ITERATION SUMMARY FOR THE INCREMENT:   1 TOTAL ITERATIONS, OF WHICH
   0 ARE SEVERE DISCONTINUITY ITERATIONS AND  1 ARE EQUILIBRIUM ITERATIONS.

 TIME INCREMENT COMPLETED  1.000E-07,  FRACTION OF STEP COMPLETED  3.900E-02
 STEP TIME COMPLETED       3.900E-06,  TOTAL TIME COMPLETED        3.900E-06


  INCREMENT    40 STARTS. ATTEMPT NUMBER  1, TIME INCREMENT  1.000E-07
 
	SYMMETRIC DIRECT SPARSE SOLVER RUNNING ON
 	1 HOST x 1 MPI RANK PER HOST x 2 THREADS PER RANK
        NUMBER OF EQUATIONS:  51912
        NUMBER OF RHS:        1
        NUMBER OF FLOPS:      4.498e+09
        SOLVER ELAPSED TIME:  54ms

               CONVERGENCE CHECKS FOR EQUILIBRIUM ITERATION     1


 AVERAGE FORCE                      2.161E-02   TIME AVG. FORCE       1.782E-02
 LARGEST SCALED RESIDUAL FORCE      9.521E-15   AT NODE      10458   DOF  2
   INSTANCE: BLOCK-1                                                                         
  CORRESPONDING RESIDUAL FORCE      9.521E-15
 LARGEST INCREMENT OF DISP.         1.335E-08   AT NODE          5   DOF  2
   INSTANCE: BLOCK-1                                                                         
 LARGEST CORRECTION TO DISP.        3.595E-09   AT NODE          5   DOF  1
   INSTANCE: BLOCK-1                                                                         
          THE FORCE     EQUILIBRIUM RESPONSE WAS LINEAR IN THIS INCREMENT

 AVERAGE MOMENT                      0.00       TIME AVG. MOMENT      1.000E-02
 ALL MOMENT    RESIDUALS ARE ZERO
 ALL ROTATION INCREMENTS ARE ZERO
 ALL CORRECTION TO ROTATION ARE ZERO
          THERE IS ZERO MOMENT    EVERYWHERE

 ITERATION SUMMARY FOR THE INCREMENT:   1 TOTAL ITERATIONS, OF WHICH
   0 ARE SEVERE DISCONTINUITY ITERATIONS AND  1 ARE EQUILIBRIUM ITERATIONS.

 TIME INCREMENT COMPLETED  1.000E-07,  FRACTION OF STEP COMPLETED  4.000E-02
 STEP TIME COMPLETED       4.000E-06,  TOTAL TIME COMPLETED        4.000E-06


  INCREMENT    41 STARTS. ATTEMPT NUMBER  1, TIME INCREMENT  1.000E-07
 
	SYMMETRIC DIRECT SPARSE SOLVER RUNNING ON
 	1 HOST x 1 MPI RANK PER HOST x 2 THREADS PER RANK
        NUMBER OF EQUATIONS:  51912
        NUMBER OF RHS:        1
        NUMBER OF FLOPS:      4.498e+09
        SOLVER ELAPSED TIME:  59ms

               CONVERGENCE CHECKS FOR EQUILIBRIUM ITERATION     1


 AVERAGE FORCE                      2.201E-02   TIME AVG. FORCE       1.792E-02
 LARGEST SCALED RESIDUAL FORCE      1.005E-14   AT NODE      12088   DOF  2
   INSTANCE: BLOCK-1                                                                         
  CORRESPONDING RESIDUAL FORCE      1.005E-14
 LARGEST INCREMENT OF DISP.         1.288E-08   AT NODE       1785   DOF  2
   INSTANCE: BLOCK-1                                                                         
 LARGEST CORRECTION TO DISP.       -2.282E-09   AT NODE          5   DOF  2
   INSTANCE: BLOCK-1                                                                         
          THE FORCE     EQUILIBRIUM RESPONSE WAS LINEAR IN THIS INCREMENT

 AVERAGE MOMENT                      0.00       TIME AVG. MOMENT      1.000E-02
 ALL MOMENT    RESIDUALS ARE ZERO
 ALL ROTATION INCREMENTS ARE ZERO
 ALL CORRECTION TO ROTATION ARE ZERO
          THERE IS ZERO MOMENT    EVERYWHERE

 ITERATION SUMMARY FOR THE INCREMENT:   1 TOTAL ITERATIONS, OF WHICH
   0 ARE SEVERE DISCONTINUITY ITERATIONS AND  1 ARE EQUILIBRIUM ITERATIONS.

 TIME INCREMENT COMPLETED  1.000E-07,  FRACTION OF STEP COMPLETED  4.100E-02
 STEP TIME COMPLETED       4.100E-06,  TOTAL TIME COMPLETED        4.100E-06


  INCREMENT    42 STARTS. ATTEMPT NUMBER  1, TIME INCREMENT  1.000E-07
 
	SYMMETRIC DIRECT SPARSE SOLVER RUNNING ON
 	1 HOST x 1 MPI RANK PER HOST x 2 THREADS PER RANK
        NUMBER OF EQUATIONS:  51912
        NUMBER OF RHS:        1
        NUMBER OF FLOPS:      4.498e+09
        SOLVER ELAPSED TIME:  64ms

               CONVERGENCE CHECKS FOR EQUILIBRIUM ITERATION     1


 AVERAGE FORCE                      2.245E-02   TIME AVG. FORCE       1.803E-02
 LARGEST SCALED RESIDUAL FORCE     -9.231E-15   AT NODE      12333   DOF  2
   INSTANCE: BLOCK-1                                                                         
  CORRESPONDING RESIDUAL FORCE     -9.231E-15
 LARGEST INCREMENT OF DISP.         1.410E-08   AT NODE        196   DOF  2
   INSTANCE: BLOCK-1                                                                         
 LARGEST CORRECTION TO DISP.       -2.647E-09   AT NODE          5   DOF  1
   INSTANCE: BLOCK-1                                                                         
          THE FORCE     EQUILIBRIUM RESPONSE WAS LINEAR IN THIS INCREMENT

 AVERAGE MOMENT                      0.00       TIME AVG. MOMENT      1.000E-02
 ALL MOMENT    RESIDUALS ARE ZERO
 ALL ROTATION INCREMENTS ARE ZERO
 ALL CORRECTION TO ROTATION ARE ZERO
          THERE IS ZERO MOMENT    EVERYWHERE

 ITERATION SUMMARY FOR THE INCREMENT:   1 TOTAL ITERATIONS, OF WHICH
   0 ARE SEVERE DISCONTINUITY ITERATIONS AND  1 ARE EQUILIBRIUM ITERATIONS.

 TIME INCREMENT COMPLETED  1.000E-07,  FRACTION OF STEP COMPLETED  4.200E-02
 STEP TIME COMPLETED       4.200E-06,  TOTAL TIME COMPLETED        4.200E-06


  INCREMENT    43 STARTS. ATTEMPT NUMBER  1, TIME INCREMENT  1.000E-07
 
	SYMMETRIC DIRECT SPARSE SOLVER RUNNING ON
 	1 HOST x 1 MPI RANK PER HOST x 2 THREADS PER RANK
        NUMBER OF EQUATIONS:  51912
        NUMBER OF RHS:        1
        NUMBER OF FLOPS:      4.498e+09
        SOLVER ELAPSED TIME:  64ms

               CONVERGENCE CHECKS FOR EQUILIBRIUM ITERATION     1


 AVERAGE FORCE                      2.291E-02   TIME AVG. FORCE       1.814E-02
 LARGEST SCALED RESIDUAL FORCE     -1.059E-14   AT NODE      12002   DOF  2
   INSTANCE: BLOCK-1                                                                         
  CORRESPONDING RESIDUAL FORCE     -1.059E-14
 LARGEST INCREMENT OF DISP.         1.394E-08   AT NODE        238   DOF  2
   INSTANCE: BLOCK-1                                                                         
 LARGEST CORRECTION TO DISP.        3.251E-09   AT NODE          5   DOF  2
   INSTANCE: BLOCK-1                                                                         
          THE FORCE     EQUILIBRIUM RESPONSE WAS LINEAR IN THIS INCREMENT

 AVERAGE MOMENT                      0.00       TIME AVG. MOMENT      1.000E-02
 ALL MOMENT    RESIDUALS ARE ZERO
 ALL ROTATION INCREMENTS ARE ZERO
 ALL CORRECTION TO ROTATION ARE ZERO
          THERE IS ZERO MOMENT    EVERYWHERE

 ITERATION SUMMARY FOR THE INCREMENT:   1 TOTAL ITERATIONS, OF WHICH
   0 ARE SEVERE DISCONTINUITY ITERATIONS AND  1 ARE EQUILIBRIUM ITERATIONS.

 TIME INCREMENT COMPLETED  1.000E-07,  FRACTION OF STEP COMPLETED  4.300E-02
 STEP TIME COMPLETED       4.300E-06,  TOTAL TIME COMPLETED        4.300E-06


  INCREMENT    44 STARTS. ATTEMPT NUMBER  1, TIME INCREMENT  1.000E-07
 
	SYMMETRIC DIRECT SPARSE SOLVER RUNNING ON
 	1 HOST x 1 MPI RANK PER HOST x 2 THREADS PER RANK
        NUMBER OF EQUATIONS:  51912
        NUMBER OF RHS:        1
        NUMBER OF FLOPS:      4.498e+09
        SOLVER ELAPSED TIME:  48ms

               CONVERGENCE CHECKS FOR EQUILIBRIUM ITERATION     1


 AVERAGE FORCE                      2.337E-02   TIME AVG. FORCE       1.826E-02
 LARGEST SCALED RESIDUAL FORCE      9.650E-15   AT NODE      11623   DOF  2
   INSTANCE: BLOCK-1                                                                         
  CORRESPONDING RESIDUAL FORCE      9.650E-15
 LARGEST INCREMENT OF DISP.         1.386E-08   AT NODE        238   DOF  2
   INSTANCE: BLOCK-1                                                                         
 LARGEST CORRECTION TO DISP.        3.306E-09   AT NODE          5   DOF  2
   INSTANCE: BLOCK-1                                                                         
          THE FORCE     EQUILIBRIUM RESPONSE WAS LINEAR IN THIS INCREMENT

 AVERAGE MOMENT                      0.00       TIME AVG. MOMENT      1.000E-02
 ALL MOMENT    RESIDUALS ARE ZERO
 ALL ROTATION INCREMENTS ARE ZERO
 ALL CORRECTION TO ROTATION ARE ZERO
          THERE IS ZERO MOMENT    EVERYWHERE

 ITERATION SUMMARY FOR THE INCREMENT:   1 TOTAL ITERATIONS, OF WHICH
   0 ARE SEVERE DISCONTINUITY ITERATIONS AND  1 ARE EQUILIBRIUM ITERATIONS.

 TIME INCREMENT COMPLETED  1.000E-07,  FRACTION OF STEP COMPLETED  4.400E-02
 STEP TIME COMPLETED       4.400E-06,  TOTAL TIME COMPLETED        4.400E-06


  INCREMENT    45 STARTS. ATTEMPT NUMBER  1, TIME INCREMENT  1.000E-07
 
	SYMMETRIC DIRECT SPARSE SOLVER RUNNING ON
 	1 HOST x 1 MPI RANK PER HOST x 2 THREADS PER RANK
        NUMBER OF EQUATIONS:  51912
        NUMBER OF RHS:        1
        NUMBER OF FLOPS:      4.498e+09
        SOLVER ELAPSED TIME:  52ms

               CONVERGENCE CHECKS FOR EQUILIBRIUM ITERATION     1


 AVERAGE FORCE                      2.385E-02   TIME AVG. FORCE       1.839E-02
 LARGEST SCALED RESIDUAL FORCE     -1.005E-14   AT NODE      10215   DOF  2
   INSTANCE: BLOCK-1                                                                         
  CORRESPONDING RESIDUAL FORCE     -1.005E-14
 LARGEST INCREMENT OF DISP.        -1.308E-08   AT NODE        673   DOF  2
   INSTANCE: BLOCK-1                                                                         
 LARGEST CORRECTION TO DISP.       -2.243E-09   AT NODE        647   DOF  2
   INSTANCE: BLOCK-1                                                                         
          THE FORCE     EQUILIBRIUM RESPONSE WAS LINEAR IN THIS INCREMENT

 AVERAGE MOMENT                      0.00       TIME AVG. MOMENT      1.000E-02
 ALL MOMENT    RESIDUALS ARE ZERO
 ALL ROTATION INCREMENTS ARE ZERO
 ALL CORRECTION TO ROTATION ARE ZERO
          THERE IS ZERO MOMENT    EVERYWHERE

 ITERATION SUMMARY FOR THE INCREMENT:   1 TOTAL ITERATIONS, OF WHICH
   0 ARE SEVERE DISCONTINUITY ITERATIONS AND  1 ARE EQUILIBRIUM ITERATIONS.

 TIME INCREMENT COMPLETED  1.000E-07,  FRACTION OF STEP COMPLETED  4.500E-02
 STEP TIME COMPLETED       4.500E-06,  TOTAL TIME COMPLETED        4.500E-06


  INCREMENT    46 STARTS. ATTEMPT NUMBER  1, TIME INCREMENT  1.000E-07
 
	SYMMETRIC DIRECT SPARSE SOLVER RUNNING ON
 	1 HOST x 1 MPI RANK PER HOST x 2 THREADS PER RANK
        NUMBER OF EQUATIONS:  51912
        NUMBER OF RHS:        1
        NUMBER OF FLOPS:      4.498e+09
        SOLVER ELAPSED TIME:  76ms

               CONVERGENCE CHECKS FOR EQUILIBRIUM ITERATION     1


 AVERAGE FORCE                      2.432E-02   TIME AVG. FORCE       1.851E-02
 LARGEST SCALED RESIDUAL FORCE     -8.490E-15   AT NODE      11627   DOF  2
   INSTANCE: BLOCK-1                                                                         
  CORRESPONDING RESIDUAL FORCE     -8.490E-15
 LARGEST INCREMENT OF DISP.         1.611E-08   AT NODE          5   DOF  2
   INSTANCE: BLOCK-1                                                                         
 LARGEST CORRECTION TO DISP.       -3.506E-09   AT NODE          5   DOF  2
   INSTANCE: BLOCK-1                                                                         
          THE FORCE     EQUILIBRIUM RESPONSE WAS LINEAR IN THIS INCREMENT

[...]
 
	SYMMETRIC DIRECT SPARSE SOLVER RUNNING ON
 	1 HOST x 1 MPI RANK PER HOST x 2 THREADS PER RANK
        NUMBER OF EQUATIONS:  51912
        NUMBER OF RHS:        1
        NUMBER OF FLOPS:      4.498e+09
        SOLVER ELAPSED TIME:  265ms

               CONVERGENCE CHECKS FOR EQUILIBRIUM ITERATION     1


 AVERAGE FORCE                      4.507E-02   TIME AVG. FORCE       3.089E-02
 LARGEST SCALED RESIDUAL FORCE      1.214E-05   AT NODE      12699   DOF  3
   INSTANCE: BLOCK-1                                                                         
  CORRESPONDING RESIDUAL FORCE      1.214E-05
 LARGEST INCREMENT OF DISP.         5.386E-08   AT NODE       5460   DOF  2
   INSTANCE: BLOCK-1                                                                         
 LARGEST CORRECTION TO DISP.        1.077E-09   AT NODE         57   DOF  2
   INSTANCE: BLOCK-1                                                                         
 ESTIMATE OF DISP.    CORRECTION   -2.862E-14
 FORCE     EQUILIB. ACCEPTED BASED ON SMALL RESIDUAL AND ESTIMATED CORRECTION

 AVERAGE MOMENT                     1.094E-09   TIME AVG. MOMENT      1.000E-02
 LARGEST SCALED RESIDUAL MOMENT    -1.482E-21   AT NODE      10452   DOF  4
   INSTANCE: BLOCK-1                                                                         
  CORRESPONDING RESIDUAL MOMENT    -1.482E-21
 LARGEST INCREMENT OF ROTATION      5.782E-03   AT NODE          9   DOF  4
   INSTANCE: BLOCK-1                                                                         
 LARGEST CORRECTION TO ROTATION     2.090E-04   AT NODE       1978   DOF  4
   INSTANCE: BLOCK-1                                                                         
          THERE IS ZERO MOMENT    EVERYWHERE
 

 ***WARNING: THERE IS ZERO MOMENT EVERYWHERE IN THE MODEL BASED ON THE DEFAULT 
             CRITERION. PLEASE CHECK THE VALUE OF THE AVERAGE MOMENT DURING THE 
             CURRENT ITERATION TO VERIFY THAT THE MOMENT IS SMALL ENOUGH TO BE 
             TREATED AS ZERO. IF NOT, PLEASE USE THE SOLUTION CONTROLS TO RESET 
             THE CRITERION FOR ZERO MOMENT.

 ITERATION SUMMARY FOR THE INCREMENT:   1 TOTAL ITERATIONS, OF WHICH
   0 ARE SEVERE DISCONTINUITY ITERATIONS AND  1 ARE EQUILIBRIUM ITERATIONS.

 TIME INCREMENT COMPLETED  1.000E-07,  FRACTION OF STEP COMPLETED  0.272    
 STEP TIME COMPLETED       2.720E-05,  TOTAL TIME COMPLETED        2.720E-05


  INCREMENT   273 STARTS. ATTEMPT NUMBER  1, TIME INCREMENT  1.000E-07
 
	SYMMETRIC DIRECT SPARSE SOLVER RUNNING ON
 	1 HOST x 1 MPI RANK PER HOST x 2 THREADS PER RANK
        NUMBER OF EQUATIONS:  51912
        NUMBER OF RHS:        1
        NUMBER OF FLOPS:      4.498e+09
        SOLVER ELAPSED TIME:  262ms

               CONVERGENCE CHECKS FOR EQUILIBRIUM ITERATION     1


 AVERAGE FORCE                      4.532E-02   TIME AVG. FORCE       3.095E-02
 LARGEST SCALED RESIDUAL FORCE      1.205E-05   AT NODE        339   DOF  3
   INSTANCE: BLOCK-1                                                                         
  CORRESPONDING RESIDUAL FORCE      1.205E-05
 LARGEST INCREMENT OF DISP.        -5.410E-08   AT NODE       1466   DOF  2
   INSTANCE: BLOCK-1                                                                         
 LARGEST CORRECTION TO DISP.       -8.333E-10   AT NODE          5   DOF  1
   INSTANCE: BLOCK-1                                                                         
 ESTIMATE OF DISP.    CORRECTION    2.239E-14
 FORCE     EQUILIB. ACCEPTED BASED ON SMALL RESIDUAL AND ESTIMATED CORRECTION

 AVERAGE MOMENT                     1.126E-09   TIME AVG. MOMENT      1.000E-02
 LARGEST SCALED RESIDUAL MOMENT    -1.535E-21   AT NODE      12117   DOF  4
   INSTANCE: BLOCK-1                                                                         
  CORRESPONDING RESIDUAL MOMENT    -1.535E-21
 LARGEST INCREMENT OF ROTATION      6.234E-03   AT NODE          9   DOF  4
   INSTANCE: BLOCK-1                                                                         
 LARGEST CORRECTION TO ROTATION    -3.064E-04   AT NODE       2105   DOF  4
   INSTANCE: BLOCK-1                                                                         
          THERE IS ZERO MOMENT    EVERYWHERE
 

 ***WARNING: THERE IS ZERO MOMENT EVERYWHERE IN THE MODEL BASED ON THE DEFAULT 
             CRITERION. PLEASE CHECK THE VALUE OF THE AVERAGE MOMENT DURING THE 
             CURRENT ITERATION TO VERIFY THAT THE MOMENT IS SMALL ENOUGH TO BE 
             TREATED AS ZERO. IF NOT, PLEASE USE THE SOLUTION CONTROLS TO RESET 
             THE CRITERION FOR ZERO MOMENT.

 ITERATION SUMMARY FOR THE INCREMENT:   1 TOTAL ITERATIONS, OF WHICH
   0 ARE SEVERE DISCONTINUITY ITERATIONS AND  1 ARE EQUILIBRIUM ITERATIONS.

 TIME INCREMENT COMPLETED  1.000E-07,  FRACTION OF STEP COMPLETED  0.273    
 STEP TIME COMPLETED       2.730E-05,  TOTAL TIME COMPLETED        2.730E-05


  INCREMENT   274 STARTS. ATTEMPT NUMBER  1, TIME INCREMENT  1.000E-07
 
	SYMMETRIC DIRECT SPARSE SOLVER RUNNING ON
 	1 HOST x 1 MPI RANK PER HOST x 2 THREADS PER RANK
        NUMBER OF EQUATIONS:  51912
        NUMBER OF RHS:        1
        NUMBER OF FLOPS:      4.498e+09
        SOLVER ELAPSED TIME:  260ms

               CONVERGENCE CHECKS FOR EQUILIBRIUM ITERATION     1


 AVERAGE FORCE                      4.558E-02   TIME AVG. FORCE       3.100E-02
 LARGEST SCALED RESIDUAL FORCE      2.705E-05   AT NODE       4436   DOF  1
   INSTANCE: BLOCK-1                                                                         
  CORRESPONDING RESIDUAL FORCE      2.705E-05
 LARGEST INCREMENT OF DISP.         5.528E-08   AT NODE        382   DOF  2
   INSTANCE: BLOCK-1                                                                         
 LARGEST CORRECTION TO DISP.        1.013E-09   AT NODE       5420   DOF  2
   INSTANCE: BLOCK-1                                                                         
 ESTIMATE OF DISP.    CORRECTION    5.901E-14
 FORCE     EQUILIB. ACCEPTED BASED ON SMALL RESIDUAL AND ESTIMATED CORRECTION

 AVERAGE MOMENT                     1.159E-09   TIME AVG. MOMENT      1.000E-02
 LARGEST SCALED RESIDUAL MOMENT    -1.707E-21   AT NODE       9351   DOF  4
   INSTANCE: BLOCK-1                                                                         
  CORRESPONDING RESIDUAL MOMENT    -1.707E-21
 LARGEST INCREMENT OF ROTATION      6.691E-03   AT NODE          9   DOF  4
   INSTANCE: BLOCK-1                                                                         
 LARGEST CORRECTION TO ROTATION     3.040E-04   AT NODE       2105   DOF  4
   INSTANCE: BLOCK-1                                                                         
          THERE IS ZERO MOMENT    EVERYWHERE
 

 ***WARNING: THERE IS ZERO MOMENT EVERYWHERE IN THE MODEL BASED ON THE DEFAULT 
             CRITERION. PLEASE CHECK THE VALUE OF THE AVERAGE MOMENT DURING THE 
             CURRENT ITERATION TO VERIFY THAT THE MOMENT IS SMALL ENOUGH TO BE 
             TREATED AS ZERO. IF NOT, PLEASE USE THE SOLUTION CONTROLS TO RESET 
             THE CRITERION FOR ZERO MOMENT.

 ITERATION SUMMARY FOR THE INCREMENT:   1 TOTAL ITERATIONS, OF WHICH
   0 ARE SEVERE DISCONTINUITY ITERATIONS AND  1 ARE EQUILIBRIUM ITERATIONS.

 TIME INCREMENT COMPLETED  1.000E-07,  FRACTION OF STEP COMPLETED  0.274    
 STEP TIME COMPLETED       2.740E-05,  TOTAL TIME COMPLETED        2.740E-05


  INCREMENT   275 STARTS. ATTEMPT NUMBER  1, TIME INCREMENT  1.000E-07
 
	SYMMETRIC DIRECT SPARSE SOLVER RUNNING ON
 	1 HOST x 1 MPI RANK PER HOST x 2 THREADS PER RANK
        NUMBER OF EQUATIONS:  51912
        NUMBER OF RHS:        1
        NUMBER OF FLOPS:      4.498e+09
        SOLVER ELAPSED TIME:  272ms

               CONVERGENCE CHECKS FOR EQUILIBRIUM ITERATION     1


 AVERAGE FORCE                      4.585E-02   TIME AVG. FORCE       3.105E-02
 LARGEST SCALED RESIDUAL FORCE     -4.722E-06   AT NODE        337   DOF  2
   INSTANCE: BLOCK-1                                                                         
  CORRESPONDING RESIDUAL FORCE     -4.722E-06
 LARGEST INCREMENT OF DISP.        -5.675E-08   AT NODE        330   DOF  2
   INSTANCE: BLOCK-1                                                                         
 LARGEST CORRECTION TO DISP.       -9.977E-10   AT NODE         57   DOF  2
   INSTANCE: BLOCK-1                                                                         
 ESTIMATE OF DISP.    CORRECTION    1.140E-14
 FORCE     EQUILIB. ACCEPTED BASED ON SMALL RESIDUAL AND ESTIMATED CORRECTION

 AVERAGE MOMENT                     1.195E-09   TIME AVG. MOMENT      1.000E-02
 LARGEST SCALED RESIDUAL MOMENT    -2.210E-21   AT NODE       9351   DOF  4
   INSTANCE: BLOCK-1                                                                         
  CORRESPONDING RESIDUAL MOMENT    -2.210E-21
 LARGEST INCREMENT OF ROTATION      7.139E-03   AT NODE          9   DOF  4
   INSTANCE: BLOCK-1                                                                         
 LARGEST CORRECTION TO ROTATION    -2.931E-04   AT NODE       1978   DOF  4
   INSTANCE: BLOCK-1                                                                         
          THERE IS ZERO MOMENT    EVERYWHERE
 

 ***WARNING: THERE IS ZERO MOMENT EVERYWHERE IN THE MODEL BASED ON THE DEFAULT 
             CRITERION. PLEASE CHECK THE VALUE OF THE AVERAGE MOMENT DURING THE 
             CURRENT ITERATION TO VERIFY THAT THE MOMENT IS SMALL ENOUGH TO BE 
             TREATED AS ZERO. IF NOT, PLEASE USE THE SOLUTION CONTROLS TO RESET 
             THE CRITERION FOR ZERO MOMENT.

 ITERATION SUMMARY FOR THE INCREMENT:   1 TOTAL ITERATIONS, OF WHICH
   0 ARE SEVERE DISCONTINUITY ITERATIONS AND  1 ARE EQUILIBRIUM ITERATIONS.

 TIME INCREMENT COMPLETED  1.000E-07,  FRACTION OF STEP COMPLETED  0.275    
 STEP TIME COMPLETED       2.750E-05,  TOTAL TIME COMPLETED        2.750E-05


  INCREMENT   276 STARTS. ATTEMPT NUMBER  1, TIME INCREMENT  1.000E-07
 
	SYMMETRIC DIRECT SPARSE SOLVER RUNNING ON
 	1 HOST x 1 MPI RANK PER HOST x 2 THREADS PER RANK
        NUMBER OF EQUATIONS:  51912
        NUMBER OF RHS:        1
        NUMBER OF FLOPS:      4.498e+09
        SOLVER ELAPSED TIME:  245ms

               CONVERGENCE CHECKS FOR EQUILIBRIUM ITERATION     1


 AVERAGE FORCE                      4.611E-02   TIME AVG. FORCE       3.111E-02
 LARGEST SCALED RESIDUAL FORCE      1.306E-05   AT NODE       9351   DOF  3
   INSTANCE: BLOCK-1                                                                         
  CORRESPONDING RESIDUAL FORCE      1.306E-05
 LARGEST INCREMENT OF DISP.        -5.802E-08   AT NODE        330   DOF  2
   INSTANCE: BLOCK-1                                                                         
 LARGEST CORRECTION TO DISP.       -8.130E-10   AT NODE       5390   DOF  1
   INSTANCE: BLOCK-1                                                                         
 ESTIMATE OF DISP.    CORRECTION   -2.557E-14
 FORCE     EQUILIB. ACCEPTED BASED ON SMALL RESIDUAL AND ESTIMATED CORRECTION

 AVERAGE MOMENT                     1.233E-09   TIME AVG. MOMENT      1.000E-02
 LARGEST SCALED RESIDUAL MOMENT     2.564E-21   AT NODE      12900   DOF  4
   INSTANCE: BLOCK-1                                                                         
  CORRESPONDING RESIDUAL MOMENT     2.564E-21
 LARGEST INCREMENT OF ROTATION      7.582E-03   AT NODE          9   DOF  4
   INSTANCE: BLOCK-1                                                                         
 LARGEST CORRECTION TO ROTATION     3.278E-04   AT NODE       2105   DOF  4
   INSTANCE: BLOCK-1                                                                         
          THERE IS ZERO MOMENT    EVERYWHERE
 

 ***WARNING: THERE IS ZERO MOMENT EVERYWHERE IN THE MODEL BASED ON THE DEFAULT 
             CRITERION. PLEASE CHECK THE VALUE OF THE AVERAGE MOMENT DURING THE 
             CURRENT ITERATION TO VERIFY THAT THE MOMENT IS SMALL ENOUGH TO BE 
             TREATED AS ZERO. IF NOT, PLEASE USE THE SOLUTION CONTROLS TO RESET 
             THE CRITERION FOR ZERO MOMENT.

 ITERATION SUMMARY FOR THE INCREMENT:   1 TOTAL ITERATIONS, OF WHICH
   0 ARE SEVERE DISCONTINUITY ITERATIONS AND  1 ARE EQUILIBRIUM ITERATIONS.

 TIME INCREMENT COMPLETED  1.000E-07,  FRACTION OF STEP COMPLETED  0.276    
 STEP TIME COMPLETED       2.760E-05,  TOTAL TIME COMPLETED        2.760E-05


  INCREMENT   277 STARTS. ATTEMPT NUMBER  1, TIME INCREMENT  1.000E-07
 
	SYMMETRIC DIRECT SPARSE SOLVER RUNNING ON
 	1 HOST x 1 MPI RANK PER HOST x 2 THREADS PER RANK
        NUMBER OF EQUATIONS:  51912
        NUMBER OF RHS:        1
        NUMBER OF FLOPS:      4.498e+09
        SOLVER ELAPSED TIME:  251ms

               CONVERGENCE CHECKS FOR EQUILIBRIUM ITERATION     1


 AVERAGE FORCE                      4.636E-02   TIME AVG. FORCE       3.116E-02
 LARGEST SCALED RESIDUAL FORCE      9.502E-06   AT NODE       5113   DOF  3
   INSTANCE: BLOCK-1                                                                         
  CORRESPONDING RESIDUAL FORCE      9.502E-06
 LARGEST INCREMENT OF DISP.        -5.902E-08   AT NODE        330   DOF  2
   INSTANCE: BLOCK-1                                                                         
 LARGEST CORRECTION TO DISP.       -7.596E-10   AT NODE       5420   DOF  2
   INSTANCE: BLOCK-1                                                                         
 ESTIMATE OF DISP.    CORRECTION   -1.705E-14
 FORCE     EQUILIB. ACCEPTED BASED ON SMALL RESIDUAL AND ESTIMATED CORRECTION

 AVERAGE MOMENT                     1.274E-09   TIME AVG. MOMENT      1.000E-02
 LARGEST SCALED RESIDUAL MOMENT     1.826E-21   AT NODE      11272   DOF  4
   INSTANCE: BLOCK-1                                                                         
  CORRESPONDING RESIDUAL MOMENT     1.826E-21
 LARGEST INCREMENT OF ROTATION      8.004E-03   AT NODE          9   DOF  4
   INSTANCE: BLOCK-1                                                                         
 LARGEST CORRECTION TO ROTATION    -3.957E-04   AT NODE       2105   DOF  4
   INSTANCE: BLOCK-1                                                                         
          THERE IS ZERO MOMENT    EVERYWHERE
 

 ***WARNING: THERE IS ZERO MOMENT EVERYWHERE IN THE MODEL BASED ON THE DEFAULT 
             CRITERION. PLEASE CHECK THE VALUE OF THE AVERAGE MOMENT DURING THE 
             CURRENT ITERATION TO VERIFY THAT THE MOMENT IS SMALL ENOUGH TO BE 
             TREATED AS ZERO. IF NOT, PLEASE USE THE SOLUTION CONTROLS TO RESET 
             THE CRITERION FOR ZERO MOMENT.

 ITERATION SUMMARY FOR THE INCREMENT:   1 TOTAL ITERATIONS, OF WHICH
   0 ARE SEVERE DISCONTINUITY ITERATIONS AND  1 ARE EQUILIBRIUM ITERATIONS.

 TIME INCREMENT COMPLETED  1.000E-07,  FRACTION OF STEP COMPLETED  0.277    
 STEP TIME COMPLETED       2.770E-05,  TOTAL TIME COMPLETED        2.770E-05


  INCREMENT   278 STARTS. ATTEMPT NUMBER  1, TIME INCREMENT  1.000E-07
 
	SYMMETRIC DIRECT SPARSE SOLVER RUNNING ON
 	1 HOST x 1 MPI RANK PER HOST x 2 THREADS PER RANK
        NUMBER OF EQUATIONS:  51912
        NUMBER OF RHS:        1
        NUMBER OF FLOPS:      4.498e+09
        SOLVER ELAPSED TIME:  243ms

               CONVERGENCE CHECKS FOR EQUILIBRIUM ITERATION     1


 AVERAGE FORCE                      4.659E-02   TIME AVG. FORCE       3.122E-02
 LARGEST SCALED RESIDUAL FORCE      1.505E-05   AT NODE       6697   DOF  1
   INSTANCE: BLOCK-1                                                                         
  CORRESPONDING RESIDUAL FORCE      1.505E-05
 LARGEST INCREMENT OF DISP.        -6.021E-08   AT NODE        332   DOF  2
   INSTANCE: BLOCK-1                                                                         
 LARGEST CORRECTION TO DISP.       -1.129E-09   AT NODE       5420   DOF  2
   INSTANCE: BLOCK-1                                                                         
 ESTIMATE OF DISP.    CORRECTION    3.231E-14
 FORCE     EQUILIB. ACCEPTED BASED ON SMALL RESIDUAL AND ESTIMATED CORRECTION

 AVERAGE MOMENT                     1.317E-09   TIME AVG. MOMENT      1.000E-02
 LARGEST SCALED RESIDUAL MOMENT     2.621E-21   AT NODE       9351   DOF  4
   INSTANCE: BLOCK-1                                                                         
  CORRESPONDING RESIDUAL MOMENT     2.621E-21
 LARGEST INCREMENT OF ROTATION      8.438E-03   AT NODE          9   DOF  4
   INSTANCE: BLOCK-1                                                                         
 LARGEST CORRECTION TO ROTATION     4.163E-04   AT NODE       2105   DOF  4
   INSTANCE: BLOCK-1                                                                         
          THERE IS ZERO MOMENT    EVERYWHERE
 

 ***WARNING: THERE IS ZERO MOMENT EVERYWHERE IN THE MODEL BASED ON THE DEFAULT 
             CRITERION. PLEASE CHECK THE VALUE OF THE AVERAGE MOMENT DURING THE 
             CURRENT ITERATION TO VERIFY THAT THE MOMENT IS SMALL ENOUGH TO BE 
             TREATED AS ZERO. IF NOT, PLEASE USE THE SOLUTION CONTROLS TO RESET 
             THE CRITERION FOR ZERO MOMENT.

 ITERATION SUMMARY FOR THE INCREMENT:   1 TOTAL ITERATIONS, OF WHICH
   0 ARE SEVERE DISCONTINUITY ITERATIONS AND  1 ARE EQUILIBRIUM ITERATIONS.

 TIME INCREMENT COMPLETED  1.000E-07,  FRACTION OF STEP COMPLETED  0.278    
 STEP TIME COMPLETED       2.780E-05,  TOTAL TIME COMPLETED        2.780E-05


  INCREMENT   279 STARTS. ATTEMPT NUMBER  1, TIME INCREMENT  1.000E-07
 
	SYMMETRIC DIRECT SPARSE SOLVER RUNNING ON
 	1 HOST x 1 MPI RANK PER HOST x 2 THREADS PER RANK
        NUMBER OF EQUATIONS:  51912
        NUMBER OF RHS:        1
        NUMBER OF FLOPS:      4.498e+09
        SOLVER ELAPSED TIME:  303ms

               CONVERGENCE CHECKS FOR EQUILIBRIUM ITERATION     1


 AVERAGE FORCE                      4.680E-02   TIME AVG. FORCE       3.128E-02
 LARGEST SCALED RESIDUAL FORCE     -1.626E-05   AT NODE       3116   DOF  1
   INSTANCE: BLOCK-1                                                                         
  CORRESPONDING RESIDUAL FORCE     -1.626E-05
 LARGEST INCREMENT OF DISP.         6.171E-08   AT NODE        381   DOF  2
   INSTANCE: BLOCK-1                                                                         
 LARGEST CORRECTION TO DISP.       -9.772E-10   AT NODE          5   DOF  1
   INSTANCE: BLOCK-1                                                                         
 ESTIMATE OF DISP.    CORRECTION   -3.630E-14
 FORCE     EQUILIB. ACCEPTED BASED ON SMALL RESIDUAL AND ESTIMATED CORRECTION

 AVERAGE MOMENT                     1.362E-09   TIME AVG. MOMENT      1.000E-02
 LARGEST SCALED RESIDUAL MOMENT    -2.382E-21   AT NODE       9351   DOF  4
   INSTANCE: BLOCK-1                                                                         
  CORRESPONDING RESIDUAL MOMENT    -2.382E-21
 LARGEST INCREMENT OF ROTATION      8.833E-03   AT NODE          9   DOF  4
   INSTANCE: BLOCK-1                                                                         
 LARGEST CORRECTION TO ROTATION    -3.613E-04   AT NODE       2105   DOF  4
   INSTANCE: BLOCK-1                                                                         
          THERE IS ZERO MOMENT    EVERYWHERE
 

 ***WARNING: THERE IS ZERO MOMENT EVERYWHERE IN THE MODEL BASED ON THE DEFAULT 
             CRITERION. PLEASE CHECK THE VALUE OF THE AVERAGE MOMENT DURING THE 
             CURRENT ITERATION TO VERIFY THAT THE MOMENT IS SMALL ENOUGH TO BE 
             TREATED AS ZERO. IF NOT, PLEASE USE THE SOLUTION CONTROLS TO RESET 
             THE CRITERION FOR ZERO MOMENT.

 ITERATION SUMMARY FOR THE INCREMENT:   1 TOTAL ITERATIONS, OF WHICH
   0 ARE SEVERE DISCONTINUITY ITERATIONS AND  1 ARE EQUILIBRIUM ITERATIONS.

 TIME INCREMENT COMPLETED  1.000E-07,  FRACTION OF STEP COMPLETED  0.279    
 STEP TIME COMPLETED       2.790E-05,  TOTAL TIME COMPLETED        2.790E-05


  INCREMENT   280 STARTS. ATTEMPT NUMBER  1, TIME INCREMENT  1.000E-07
