*Heading
** Job name: Job-1 Model name: Model-1
** Generated by: Abaqus/CAE 2023.HF4
*Preprint, echo=NO, model=NO, history=NO, contact=NO
**
** PARTS
**
*Part, name=Part-1
*Node
      1,          25.,        0.125
      2,   24.7999992,        0.125
      3,   24.6000004,        0.125
      4,   24.3999996,        0.125
      5,   24.2000008,        0.125
      6,          24.,        0.125
      7,   23.7999992,        0.125
      8,   23.6000004,        0.125
      9,   23.3999996,        0.125
     10,   23.2000008,        0.125
     11,          23.,        0.125
     12,   22.7999992,        0.125
     13,   22.6000004,        0.125
     14,   22.3999996,        0.125
     15,   22.2000008,        0.125
     16,          22.,        0.125
     17,   21.7999992,        0.125
     18,   21.6000004,        0.125
     19,   21.3999996,        0.125
     20,   21.2000008,        0.125
** ... 6532 like lines cut
*Element, type=COH2D4
  1,   1,   2, 103, 102
  2,   2,   3, 104, 103
  3,   3,   4, 105, 104
  4,   4,   5, 106, 105
  5,   5,   6, 107, 106
  6,   6,   7, 108, 107
  7,   7,   8, 109, 108
  8,   8,   9, 110, 109
  9,   9,  10, 111, 110
 10,  10,  11, 112, 111
 11,  11,  12, 113, 112
 12,  12,  13, 114, 113
 13,  13,  14, 115, 114
 14,  14,  15, 116, 115
 15,  15,  16, 117, 116
 16,  16,  17, 118, 117
 17,  17,  18, 119, 118
 18,  18,  19, 120, 119
 19,  19,  20, 121, 120
 20,  20,  21, 122, 121
** ... 80 like lines cut
*Element, type=CPE4
 101,    1,  206,  402,    2
 102,  206,  207,  403,  402
 103,  207,  208,  404,  403
 104,  208,  209,  405,  404
 105,  209,  210,  406,  405
 106,  210,  211,  407,  406
 107,  211,  212,  408,  407
 108,  212,  213,  409,  408
 109,  213,  214,  410,  409
 110,  214,  215,  411,  410
 111,  215,  216,  412,  411
 112,  216,  217,  413,  412
 113,  217,  218,  414,  413
 114,  218,  219,  415,  414
 115,  219,  220,  416,  415
 116,  220,  221,  417,  416
 117,  221,  222,  418,  417
 118,  222,  223,  419,  418
 119,  223,  224,  420,  419
 120,  224,  225,  421,  420
** ... 6230 like lines cut
*Nset, nset=Set-1, generate
    1,  6552,     1
*Elset, elset=Set-1, generate
  101,  6350,     1
*Nset, nset=Set-2, generate
   1,  202,    1
*Elset, elset=Set-2, generate
   1,  100,    1
** Section: Section-2
*Cohesive Section, elset=Set-2, controls=EC-1, material=cohesive, response=TRACTION SEPARATION, thickness=SPECIFIED
1., 1.2
** Section: Section-1
*Solid Section, elset=Set-1, material=rubber
1.2,
*End Part
**  
**
** ASSEMBLY
**
*Assembly, name=Assembly
**  
*Instance, name=Part-1-1, part=Part-1
*End Instance
**  
*Node
      1,         12.5,       20.125,           0.
*Nset, nset=RefP
 1,
*Nset, nset=Set-1, instance=Part-1-1
 3388, 3389, 3438, 3439, 3440, 3441, 3442, 3443, 3444, 3445, 3446, 3447, 3448, 3449, 3450, 3451
 3452, 3453, 3454, 3455, 3456, 3457, 3458, 3459, 3460, 3461, 3462, 3463, 3464, 3465, 3466, 3467
 3468, 3469, 3470, 3471, 3472, 3473, 3474, 3475, 3476, 3477, 3478, 3479, 3480, 3481, 3482, 3483
 3484, 3485, 3486, 3487, 3488, 3489, 3490, 3491, 3492, 3493, 3494, 3495, 3496, 3497, 3498, 3499
 3500, 3501, 3502, 3503, 3504, 3505, 3506, 3507, 3508, 3509, 3510, 3511, 3512, 3513, 3514, 3515
 3516, 3517, 3518, 3519, 3520, 3521, 3522, 3523, 3524, 3525, 3526, 3527, 3528, 3529, 3530, 3531
 3532, 3533, 3534, 3535, 3536, 3537, 3538, 3539, 3540, 3541, 3542, 3543, 3544, 3545, 3546, 3547
 3548, 3549, 3550, 3551, 3552, 3553, 3554, 3555, 3556, 3557, 3558, 3559, 3560, 3561
*Elset, elset=Set-1, instance=Part-1-1, generate
 6226,  6350,     1
*Nset, nset=Set-2, instance=Part-1-1
 203, 204, 230, 231, 232, 233, 234, 235, 236, 237, 238, 239, 240, 241, 242, 243
 244, 245, 246, 247, 248, 249, 250, 251, 252, 253, 254, 255, 256, 257, 258, 259
 260, 261, 262, 263, 264, 265, 266, 267, 268, 269, 270, 271, 272, 273, 274, 275
 276, 277, 278, 279, 280, 281, 282, 283, 284, 285, 286, 287, 288, 289, 290, 291
 292, 293, 294, 295, 296, 297, 298, 299, 300, 301, 302, 303, 304, 305, 306, 307
 308, 309, 310, 311, 312, 313, 314, 315, 316, 317, 318, 319, 320, 321, 322, 323
 324, 325, 326, 327, 328, 329, 330, 331, 332, 333, 334, 335, 336, 337, 338, 339
 340, 341, 342, 343, 344, 345, 346, 347, 348, 349, 350, 351, 352, 353
*Elset, elset=Set-2, instance=Part-1-1, generate
  125,  3225,    25
*Nset, nset=Set-5
 1,
*Nset, nset=m_Set-3
 1,
*Elset, elset=_s_Surf-1_S2, internal, instance=Part-1-1, generate
  125,  3225,    25
*Surface, type=ELEMENT, name=s_Surf-1
_s_Surf-1_S2, S2
** Constraint: Constraint-1
*Coupling, constraint name=Constraint-1, ref node=m_Set-3, surface=s_Surf-1
*Kinematic
*End Assembly
** 
** ELEMENT CONTROLS
** 
*Section Controls, name=EC-1, ELEMENT DELETION=YES
1., 1., 1.
** 
** MATERIALS
** 
*Material, name=cohesive
*Damage Initiation, criterion=QUADS
 0.1, 0.1, 0.1
*Damage Evolution, type=ENERGY
 0.005,
*Elastic, type=TRACTION
10000.,10000.,10000.
*Material, name=rubber
*Elastic
2., 0.45
** ----------------------------------------------------------------
** 
** STEP: Step-1
** 
*Step, name=Step-1, nlgeom=YES, inc=1000000
*Static, stabilize, factor=0.0002, allsdtol=0, continue=NO
0.0001, 1., 1e-12, 0.001
** 
** BOUNDARY CONDITIONS
** 
** Name: BC-1 Type: Symmetry/Antisymmetry/Encastre
*Boundary
Set-1, ENCASTRE
** Name: BC-2 Type: Displacement/Rotation
*Boundary
Set-5, 2, 2, 1.
** 
** OUTPUT REQUESTS
** 
*Restart, write, frequency=0
** 
** FIELD OUTPUT: F-Output-1
** 
*Output, field
*Node Output
CF, RF, U
*Element Output, directions=YES
LE, PE, PEEQ, PEMAG, S
** 
** HISTORY OUTPUT: H-Output-1
** 
*Output, history
*Node Output, nset=RefP
RF2, U2
*End Step
