*Heading
** Job name: elastoplastic_plate_3D Model name: elastoplastic_plate_3D
** Generated by: Abaqus/CAE 2023.HF4
*Preprint, echo=NO, model=NO, history=NO, contact=NO
**
** PARTS
**
*Part, name=elastic-plastic-plate
*Node
1, 0.0599999987, 0.0250000004, 0.00100000005
2, 0.0599999987, 0.0250000004,           0.
3, 0.0599999987, 0.0260000005, 0.00100000005
4, 0.0599999987, 0.0260000005,           0.
5, 0.0599999987, 0.0270000007, 0.00100000005
6, 0.0599999987, 0.0270000007,           0.
7, 0.0599999987, 0.0280000009, 0.00100000005
8, 0.0599999987, 0.0280000009,           0.
9, 0.0599999987, 0.0289999992, 0.00100000005
10, 0.0599999987, 0.0289999992,           0.
11, 0.0599999987, 0.0299999993, 0.00100000005
12, 0.0599999987, 0.0299999993,           0.
13, 0.0599999987, 0.0309999995, 0.00100000005
14, 0.0599999987, 0.0309999995,           0.
15, 0.0599999987, 0.0320000015, 0.00100000005
16, 0.0599999987, 0.0320000015,           0.
17, 0.0599999987, 0.0329999998, 0.00100000005
18, 0.0599999987, 0.0329999998,           0.
19, 0.0599999987, 0.0340000018, 0.00100000005
20, 0.0599999987, 0.0340000018,           0.
** ... 15554 like lines cut
*Element, type=C3D8T
1,   73,   74,   76,   75,    1,    2,    4,    3
2,   75,   76,   78,   77,    3,    4,    6,    5
3,   77,   78,   80,   79,    5,    6,    8,    7
4,   79,   80,   82,   81,    7,    8,   10,    9
5,   81,   82,   84,   83,    9,   10,   12,   11
6,   83,   84,   86,   85,   11,   12,   14,   13
7,   85,   86,   88,   87,   13,   14,   16,   15
8,   87,   88,   90,   89,   15,   16,   18,   17
9,   89,   90,   92,   91,   17,   18,   20,   19
10,   91,   92,   94,   93,   19,   20,   22,   21
11,   93,   94,   96,   95,   21,   22,   24,   23
12,   95,   96,   98,   97,   23,   24,   26,   25
13,   97,   98,  100,   99,   25,   26,   28,   27
14,   99,  100,  102,  101,   27,   28,   30,   29
15,  101,  102,  104,  103,   29,   30,   32,   31
16,  103,  104,  106,  105,   31,   32,   34,   33
17,  105,  106,  108,  107,   33,   34,   36,   35
18,  107,  108,  110,  109,   35,   36,   38,   37
19,  109,  110,  112,  111,   37,   38,   40,   39
20,  111,  112,  114,  113,   39,   40,   42,   41
** ... 7568 like lines cut
*Nset, nset=Set-1, generate
1,  15574,      1
*Elset, elset=Set-1, generate
1,  7588,     1
** Section: Section-1
*Solid Section, elset=Set-1, material=Material-1
,
*End Part
**
**
** ASSEMBLY
**
*Assembly, name=Assembly
**
*Instance, name=elastic-plastic-plate-1, part=elastic-plastic-plate
*End Instance
**
*Nset, nset=top_side, instance=elastic-plastic-plate-1
71,   72,  143,  144,  215,  216,  287,  288,  359,  360,  431,  432,  503,  504,  575,  576
647,  648,  719,  720,  791,  792,  863,  864,  935,  936, 1007, 1008, 1079, 1080, 1151, 1152
1223, 1224, 1295, 1296, 1367, 1368, 1439, 1440, 1511, 1512, 1583, 1584, 1655, 1656, 1727, 1728
1799, 1800, 1871, 1872, 1943, 1944, 2015, 2016, 2087, 2088, 2159, 2160, 2231, 2232, 2303, 2304
2375, 2376, 2447, 2448, 2519, 2520, 2591, 2592, 2663, 2664, 2735, 2736, 2807, 2808, 2879, 2880
2951, 2952, 3023, 3024, 3095, 3096, 3167, 3168, 3239, 3240, 3311, 3312, 3383, 3384, 3455, 3456
3527, 3528, 3599, 3600, 3671, 3672, 3743, 3744, 3815, 3816, 3887, 3888, 3959, 3960, 4031, 4032
4103, 4104, 4175, 4176, 4247, 4248, 4319, 4320, 4391, 4392
*Elset, elset=top_side, instance=elastic-plastic-plate-1, generate
35,  2100,    35
*Nset, nset=whole_part, instance=elastic-plastic-plate-1, generate
1,  15574,      1
*Elset, elset=whole_part, instance=elastic-plastic-plate-1, generate
1,  7588,     1
*Nset, nset=xsymm_side, instance=elastic-plastic-plate-1
1,    2,    3,    4,    5,    6,    7,    8,    9,   10,   11,   12,   13,   14,   15,   16
17,   18,   19,   20,   21,   22,   23,   24,   25,   26,   27,   28,   29,   30,   31,   32
33,   34,   35,   36,   37,   38,   39,   40,   41,   42,   43,   44,   45,   46,   47,   48
49,   50,   51,   52,   53,   54,   55,   56,   57,   58,   59,   60,   61,   62,   63,   64
65,   66,   67,   68,   69,   70,   71,   72, 4436, 4437, 4438, 4439, 4440, 4441, 4442, 4443
4444, 4445, 4446, 4450, 4451, 4460, 4461, 4466, 4468, 4472, 4474, 4479, 4481, 4482, 4483, 4530
4531, 4532, 4533, 4534, 4541, 4545, 4548, 4549, 4550, 4551, 4575, 4576, 4578, 4583, 4595, 4596
4599, 4607, 4618, 4619, 4623, 4631, 4638, 4642, 4647, 4651, 4653, 4656, 4657, 4673, 4676, 4678
4679, 4683, 4684, 4694, 4699, 4705, 4707, 4710, 4713, 4718, 4721, 4725, 4728, 4731, 4732, 4734
4741, 4743, 4748, 4749, 4761, 4762, 4763, 4793, 4806, 4817, 4827, 4831, 4837, 4850, 4855, 4863
4873, 4875, 4890, 4891, 4897, 4902, 4903, 4907, 4909, 4911, 4913, 4919
*Elset, elset=xsymm_side, instance=elastic-plastic-plate-1
1,    2,    3,    4,    5,    6,    7,    8,    9,   10,   11,   12,   13,   14,   15,   16
17,   18,   19,   20,   21,   22,   23,   24,   25,   26,   27,   28,   29,   30,   31,   32
33,   34,   35, 2140, 2142, 2144, 2242, 2260, 2275, 2287, 2298, 2309, 2320, 2337, 2340, 2344
2345, 2346, 2349, 2350, 3218, 3219, 3220, 3221, 3222, 3223, 3224, 3225, 3226, 3227, 3231, 3232
3233, 3234, 3235, 3236, 3237, 3238, 3239, 3240, 3242, 3243, 3246, 3542, 3544, 3546, 3548, 3550
3552, 3561, 3563, 3575, 3582
*Nset, nset=ysymm_side, instance=elastic-plastic-plate-1
4413, 4414, 4415, 4416, 4417, 4418, 4419, 4420, 4421, 4422, 4423, 4424, 4425, 4426, 4427, 4428
4429, 4430, 4431, 4432, 4433, 4434, 4435, 4448, 4449, 4458, 4463, 4464, 4467, 4469, 4470, 4477
4484, 4485, 4486, 4487, 4488, 4489, 4490, 4491, 4492, 4493, 4494, 4518, 4519, 4520, 4521, 4522
4523, 4524, 4525, 4526, 4527, 4528, 4529, 4536, 4542, 4544, 4546, 4547, 4552, 4553, 4554, 4555
4556, 4569, 4570, 4571, 4572, 4573, 4574, 4580, 4582, 4584, 4585, 4586, 4592, 4593, 4594, 4600
4604, 4605, 4610, 4611, 4614, 4617, 4620, 4621, 4624, 4625, 4626, 4627, 4628, 4632, 4635, 4639
4640, 4641, 4643, 4648, 4661, 4663, 4664, 4667, 4668, 4669, 4672, 4674, 4675, 4685, 4692, 4693
4700, 4704, 4705, 4706, 4715, 4735, 4737, 4739, 4740, 4742, 4745, 4746, 4752, 4759, 4760, 4764
4765, 4766, 4767, 4768, 4781, 4782, 4783, 4784, 4785, 4786, 4788, 4791, 4794, 4795, 4796, 4797
4804, 4805, 4809, 4811, 4812, 4816, 4818, 4819, 4822, 4823, 4825, 4826, 4828, 4829, 4830, 4831
4832, 4833, 4834, 4835, 4836, 4839, 4843, 4844, 4845, 4846, 4847, 4848, 4849, 4851, 4857, 4858
4862, 4865, 4868, 4869, 4870, 4874, 4876, 4877, 4882, 4885, 4886, 4887, 4888, 4892, 4896, 4898
4899, 4900, 4904, 4914, 4915, 4916, 4917, 4920, 4921, 4922
*Elset, elset=ysymm_side, instance=elastic-plastic-plate-1
2258, 2274, 2286, 2296, 2297, 2307, 2308, 2317, 2318, 2319, 2325, 2329, 2330, 2339, 3185, 3187
3189, 3243, 3244, 3245, 3247, 3248, 3250, 3251, 3252, 3253, 3254, 3255, 3256, 3257, 3258, 3259
3260, 3261, 3262, 3263, 3264, 3265, 3266, 3267, 3268, 3269, 3270, 3271, 3272, 3273, 3274, 3275
3277, 3278, 3280, 3281, 3282, 3283, 3285, 3286, 3287, 3289, 3291, 3292, 3293, 3294, 3295, 3296
3297, 3298, 3299, 3300, 3301, 3302, 3304, 3305, 3355, 3360, 3361, 3363, 3366, 3367, 3368, 3369
3371, 3373, 3374, 3376, 3381, 3384, 3388, 3392, 3400, 3404, 3407, 3410, 3412, 3416, 3420, 3425
3431, 3434, 3437, 3442
*Nset, nset=zsymm_side, instance=elastic-plastic-plate-1, generate
1,  15574,      1
*Elset, elset=zsymm_side, instance=elastic-plastic-plate-1, generate
1,  7588,     1
*End Assembly
*Amplitude, name=Amp-1
0.,              0.,         100000.,              1.
**
** MATERIALS
**
*Material, name=Material-1
*Density
1.,
*Depvar       
  37,      
1, AR1_sig11, AR1_sig11
2, AR2_sig22, AR2_sig22
3, AR3_sig33, AR3_sig33
4, AR4_sig12, AR4_sig12
5, AR5_sig13, AR5_sig13
6, AR6_sig23, AR6_sig23
7, AR7_stran11, AR7_stran11
8, AR8_stran22, AR8_stran22
9, AR9_stran33, AR9_stran33
10, AR10_stran12, AR10_stran12
11, AR11_stran13, AR11_stran13
12, AR12_stran23, AR12_stran23
13, AR13_eelas11, AR13_eelas11
14, AR14_eelas22, AR14_eelas22
15, AR15_eelas33, AR15_eelas33
16, AR16_eelas12, AR16_eelas12
17, AR17_eelas13, AR17_eelas13
18, AR18_eelas23, AR18_eelas23
19, AR19_eplas11, AR19_eplas11
20, AR20_eplas22, AR20_eplas22
21, AR21_eplas33, AR21_eplas33
22, AR22_eplas12, AR22_eplas12
23, AR23_eplas13, AR23_eplas13
24, AR24_eplas23, AR24_eplas23
25, AR25_eqplas, AR25_eqplas
26, AR26_deqplas, AR26_deqplas
27, AR27_sig_H, AR27_sig_H
28, AR28_sig_vonMises, AR28_sig_vonMises
29, AR29_triax, AR29_triax
30, AR30_lode, AR30_lode
31, AR31_rho_d, AR31_rho_d
32, AR32_PSI_CL_mol, AR32_PSI_CL_mol
33, AR33_CL_mol, AR33_CL_mol
34, AR34_CT_dis_mol, AR34_CT_dis_mol
35, AR35_C_mol, AR35_C_mol
36, AR36_thetaL, AR36_thetaL
37, AR37_thetaT_dis, AR37_thetaT_dis
*User Material, constants=24, type=THERMAL
**
** =============================
**
** HYDROGEN DIFFUSION PROPERTIES
**
3, 1, 8.31446e0, 293.0e0, 2e-06, 3.8e-11, 6.02214e+23, 9.24e+28
** mode_trap (1 - no trap I 2 - kumnick, krom | 3 - sofronis, dadfarnia), crystal_structure (1 - BCC | 2 - FCC), Universal gas constant - R (N*m)/(mol*K), Temperature - T (K)
** Partial molar volume - VH (m^3/mol), Diffusion coefficient - DL (m^2/s), Avogadro's constant - avogadro (1/mol), Number of solvent metal atoms per unit volume - NL (1/m^3)
1.0e0, 1.0e0, 1.0e0, 0.0d0, 8.464e+22, 8.464e+26,  -18e+3, -58.6e+3
** Number of interstitial sites per trap site (dislocations) - alpha_dis (dimless), Number of interstitial sites per trap site (grain boundaries) - alpha_gb (dimless), Number of interstitial sites per trap site (carbides) - alpha_carb (dimless), Number of trap type of dislocations - NT_dis (1/m^3)
** Number of trap type of grain boundaries - NT_gb (1/m^3), Number of trap type of carbides - NT_carb (1/m^3), Binding energy of hydrogen to dislocations - WB_dis (N*m/mol), Binding energy of hydrogen to grain boundaries - WB_gb (N*m/mol)
-11.5e+3, 6.0e0, 1.0e0, 2.866e-10, 3.571e-10, 2.0e+16, 1.0e+10 , 30000.0e0
** Binding energy of hydrogen to carbides - WB_carb (N*m/mol), Number of hydrogen atoms that can reside in each BCC lattice site - beta_BCC (dimless), Number of hydrogen atoms that can reside in each FCC lattice site - beta_FCC (dimless), Lattice parameter for BCC - a_lattice_BCC (m)
** Lattice parameter for FCC - a_lattice_FCC (m), gamma fitting parameter in Dadfarnia et al. - gamma (1/m^2), Dislocation density for the annealed material in Dadfarnia et al. - rho_d0 (1/m^2), Gibbs free energy difference between the decohering interface and the surrounding material - delta_g_b0 (N*m/mol)
**
*******************************************************
*User Material, constants=8, type=MECHANICAL
**
** =====================
**
** MECHANICAL PROPERTIES
**
200e+9, 0.3e0, 500e+6, 0.2, 2, 0.0, 0.0, 0.0
** Young's modulus - E (Pa), Poisson ratio - nu (dimless), Initial yield stress - sig_0 (Pa), n_hardening
** case_study_version, none, none, none
**
*******************************************************
*Material, name=Material-1_old
*Density
1.,
*Depvar
50,
*User Material, constants=4, type=THERMAL
8.31446,    293.,   2e-06, 3.8e-11
*User Material, constants=5, type=MECHANICAL
2e+11, 0.3, 0.2,  3.,  2.
**
** BOUNDARY CONDITIONS
**
** Name: XSYMM Type: Symmetry/Antisymmetry/Encastre
*Boundary
xsymm_side, XSYMM
** Name: YSYMM Type: Symmetry/Antisymmetry/Encastre
*Boundary
ysymm_side, YSYMM
** Name: ZSYMM Type: Symmetry/Antisymmetry/Encastre
*Boundary
zsymm_side, ZSYMM
**
** PREDEFINED FIELDS
**
** Name: Cbar_L   Type: Temperature
*Initial Conditions, type=TEMPERATURE
whole_part, 27.
** ----------------------------------------------------------------
**
** STEP: Step-1
**
*Step, name=Step-1, nlgeom=YES, inc=1000
*Coupled Temperature-displacement, creep=none
1000., 100000.,
**
** BOUNDARY CONDITIONS
**
** Name: DISP Type: Displacement/Rotation
*Boundary, amplitude=Amp-1
top_side, 2, 2, 0.0006
**
** PREDEFINED FIELDS
**
** Name: Predefined Field-1   Type: Field
*Field, variable=1, user
whole_part
**
** OUTPUT REQUESTS
**
*Restart, write, frequency=0
**
** FIELD OUTPUT: F-Output-1
**
*Output, field
*Node Output
COORD, NT, RF, RFL, U
*Element Output, directions=YES
COORD, E, HFL, LE, S, SDV, TEMP
*Output, history, frequency=0
*End Step
