*Heading
**
*Part, name=bore
*Node, nset=refPt
      1,   25.575,   1.70710683,           0.
*Surface, type=SEGMENTS, name=bore
START,       26.075, 0.5
 LINE, 25.2214466094067, 1.35355339059328
 CIRCL,       25.075, 1.70710678118655,       25.575, 1.70710678118655
 LINE,       25.075,          14.
 LINE,       18.575,          14.
*Rigid Body, ref node=refPt, analytical surface=bore
*End Part
**  
*Part, name=seal
*Node
      1,       23.625,   4.41191435
      2,       24.375,   4.41191387
      3,       23.125,   5.66191387
      4,       23.125,   4.91191387
      5,       20.625,   5.66191387
      6,       20.625,   4.91191387
      7,       23.625,  0.411913991
      8,       24.375,  0.411913991
      9,       25.125,   5.41191387
     10,       24.125,   6.41191387
     11,        19.75,   6.41191387
     12,        18.75,   5.41191387
     13,        18.75,   4.41191387
     14,       17.875,   1.41191399
     15,         19.5,  0.161914006
     16,       20.125,  0.161914006
     17,       20.125,  0.911913991
     18,       19.875,  0.911913991
     19,       19.875,   2.41191411
     20,       19.875,   3.16191435
** ... 3737 like lines cut
*Element, type=CAX4R
  1,   1,  29, 559,  68
  2,  29,  30, 560, 559
  3,  30,  31, 561, 560
  4,  31,  32, 562, 561
  5,  32,  33, 563, 562
  6,  33,  34, 564, 563
  7,  34,  35, 565, 564
  8,  35,   2,  36, 565
  9,  68, 559, 566,  67
 10, 559, 560, 567, 566
 11, 560, 561, 568, 567
 12, 561, 562, 569, 568
 13, 562, 563, 570, 569
 14, 563, 564, 571, 570
 15, 564, 565, 572, 571
 16, 565,  36,  37, 572
 17,  67, 566, 573,  66
 18, 566, 567, 574, 573
 19, 567, 568, 575, 574
 20, 568, 569, 576, 575
** ... 612 like lines cut
*Element, type=CAX3H
633, 3386, 3318, 3308
634, 2950, 2983, 3234
635, 3477, 1882, 1910
636, 1263, 2205, 2024
637, 3751, 3738, 2742
638, 3653, 2640, 2414
639, 2684, 1488, 2577
640, 3747, 2536, 1491
641, 3652, 2583, 1221
642, 2964, 3243, 1116
643, 3756, 2840, 2742
644, 3705, 2794, 2841
645, 3354, 2702, 1180
646, 3304, 2206, 2147
647, 2612, 2484, 2254
648, 3517, 3176, 2726
649, 3037, 3699, 1377
650, 3083, 1438, 3040
651, 3114, 3063, 2717
652, 2286, 2011, 1271
** ... 72 like lines cut
*Element, type=CAX4H
 725, 1401, 1761, 1758, 3227
 726, 3191, 3257, 3636, 3347
 727,   86, 2110, 3290,   87
 728, 2110,   86,   85, 1798
 729, 1798,   85,   84, 2108
 730, 1149, 2110, 1798, 2033
 731, 2406, 2033, 1148, 2261
 732, 2492, 2201, 2621, 1372
 733, 1778,  248,  249, 1741
 734, 1741,  249,  250, 1779
 735, 1779,  250,  251, 1755
 736, 1779, 1398, 2096, 1741
 737, 2406, 2651, 1149, 2033
 738, 2651, 2406, 1372, 2729
 739, 1149, 2651, 3635, 2185
 740, 1799, 3525, 3168, 1152
 741, 3191, 1807, 1150, 3257
 742, 1150,   88,   87, 3290
 743, 2715, 3076, 2489, 2615
 744, 3525, 3362, 3585, 3168
** ... 2873 like lines cut
*Elset, elset=rubber, generate
  633,  3617,     1
*Elset, elset=steel, generate
   1,  632,    1
*Solid Section, elset=steel, material=steel
*Solid Section, elset=rubber, material=rubber
**
*Elset, elset=_seal_S2, internal
  733,  734,  735,  754,  788,  789,  790,  804,  812,  814,  826,  852,  876,  877,  878,  900
  901,  903,  904,  905,  910,  925, 1041, 1042, 1060, 1061, 1062, 1066, 1067, 1074, 1088, 1101
 1102, 1119, 1125, 1126, 1127, 1133, 1135, 1137, 1144, 1170, 1179, 1214, 1215, 1216, 1217, 1220
 1225, 1229, 1233, 1238, 1246, 1275, 1306, 1317, 1323, 1326, 1328, 1329, 1332, 1333, 1341, 1344
 1364, 1370, 1373, 1437, 1597, 1598, 1649, 1652, 1653, 1654, 1655, 1670, 1671, 1745, 1766, 1823
 1826, 1832, 1833, 1834, 1835, 1836, 1837, 1845, 1846, 1847, 1848, 1849, 1854, 1856, 1859, 1860
 1862, 1863, 1865, 1869, 1875, 1894, 1895, 1896, 1900, 1903, 1920, 1921, 1923, 1928, 1929, 2041
 2044, 2057, 2084, 2088, 2095, 2135, 2138, 2139, 2142, 2144, 2146, 2148, 2151, 2152, 2153, 2154
 2156, 2165, 2174, 2196, 2198, 2204, 2214, 2216, 2218, 2221, 2222, 2227, 2229, 2230, 2231, 2232
 2233, 2234, 2235, 2236, 2237, 2238, 2244, 3545, 3546
*Elset, elset=_seal_S4, internal
  753,  759,  800,  801,  846,  858,  863,  865,  902,  906,  907,  908,  909,  924, 1039, 1040
 1059, 1064, 1111, 1117, 1118, 1189, 1190, 1193, 1201, 1202, 1204, 1209, 1218, 1219, 1224, 1232
 1241, 1242, 1243, 1245, 1255, 1301, 1318, 1319, 1320, 1321, 1322, 1369, 1438, 1518, 1651, 1659
 1661, 1679, 1712, 1768, 1824, 1825, 1827, 1829, 1830, 1838, 1839, 1840, 1841, 1850, 1851, 1852
 1853, 1855, 1861, 1866, 1867, 1868, 1870, 1871, 1872, 1873, 1874, 1876, 1877, 1878, 1879, 1880
 1881, 1882, 1901, 1905, 1919, 1926, 1930, 1931, 1935, 1937, 1938, 1939, 1940, 1941, 1942, 1948
 1949, 1950, 1951, 1952, 1953, 1975, 2021
*Elset, elset=_seal_S3, internal
  916,  917,  918,  919,  927,  936,  939, 1018, 1024, 1053, 1058, 1110, 1143, 1160, 1162, 1166
 1211, 1213, 1236, 1237, 1252, 1254, 1255, 1261, 1268, 1292, 1304, 1305, 1309, 1310, 1311, 1312
 1313, 1314, 1315, 1316, 1324, 1685, 1741, 1767, 1864, 1883, 1884, 1885, 1886, 1887, 1889, 1890
 1892, 1906, 1907, 1908, 1909, 1910, 1911, 1913, 1914, 1915, 1917, 1985, 2010, 2488, 3382
*Elset, elset=_seal_S1, internal
  911,  912,  913,  914,  915,  921,  922,  923,  926,  938, 1023, 1063, 1109, 1159, 1161, 1167
 1207, 1208, 1212, 1226, 1230, 1253, 1296, 1299, 1560, 1686, 1688, 1711, 1721, 1726, 1727, 1733
 1828, 1882, 1891, 1897, 1898, 1902, 1904, 1916, 1918, 1930, 1977, 2022, 2023, 2029, 2032, 2081
 2136, 2140, 2172
*Surface, type=ELEMENT, name=seal
_seal_S2, S2
_seal_S4, S4
_seal_S3, S3
_seal_S1, S1
*End Part
**  
*Part, name=shaft
*Node, nset=refPt
      1,       17.375,   12.5857868,           0.
*Surface, type=SEGMENTS, name=shaft
START,       16.375,          15.
 LINE, 18.0821067811865, 13.2928932188135
 CIRCL,       18.375, 12.5857864376269,       17.375, 12.5857864376269
 LINE,       18.375,          0.5
*Rigid Body, ref node=refPt, analytical surface=shaft
*End Part
**  
*Part, name=spring
*Node
      1,     20.39254,   8.54281807
      2,   20.3062019,   8.45242596
      3,         20.5,           8.
      4,       20.625,           8.
      5,   19.9418545,   8.74701405
      6,   19.9313793,   8.62245178
      7,   20.2399178,   7.49259424
      8,   20.3141823,   7.39203691
      9,   19.1290207,   8.07754803
     10,   19.2533722,   8.06483459
     11,   19.4221992,   7.56919146
     12,    19.331543,   7.48313093
     13,   20.3629951,   8.39049339
     14,   20.4111042,   8.32127571
     15,   20.4494591,   8.24621391
     16,   20.4773655,   8.16667271
     17,   20.4943161,   8.08410168
     18,   20.6181793,   8.10092258
     19,   20.5978394,   8.20000839
     20,    20.564352,   8.29545689
** ... 68 like lines cut
*Node, nset=refPt
     89,   19.875,       8.
*Element, type=CAX4R, elset=all
 1,  1,  2, 13, 22
 2, 22, 13, 14, 21
 3, 21, 14, 15, 20
 4, 20, 15, 16, 19
 5, 19, 16, 17, 18
 6, 18, 17,  3,  4
 7,  5,  6, 23, 30
 8, 30, 23, 24, 29
 9, 29, 24, 25, 28
10, 28, 25, 26, 27
11, 27, 26,  2,  1
12,  7,  8, 31, 40
13, 40, 31, 32, 39
14, 39, 32, 33, 38
15, 38, 33, 34, 37
16, 37, 34, 35, 36
17, 36, 35,  4,  3
18,  6,  5, 41, 60
19, 60, 41, 42, 59
20, 59, 42, 43, 58
** ... 24 like lines cut
*Solid Section, elset=all, material=steel
**
*Elset, elset=_spring_S4, internal
  1,  2,  3,  4,  5,  6,  7,  8,  9, 10, 11, 29, 30, 31, 32, 33
 34, 35, 36, 37, 38, 39, 40, 41, 42, 43, 44
*Elset, elset=_spring_S2, internal, generate
 12,  28,   1
*Surface, type=ELEMENT, name=spring
_spring_S4, S4
_spring_S2, S2
*Rigid Body, ref node=refPt, elset=all
**
*Element, type=Spring1, elset=radial-spring
45, 89
*Spring, elset=radial-spring
1
13.2345
*End Part
**  
*Part, name=tool
*Node, nset=refPt
      1,        21.75,         13.5,           0.
*Surface, type=SEGMENTS, name=tool
START,       20.625,         9.25
 LINE,       20.625,         13.5
 CIRCL,       21.125,          14.,       21.125,         13.5
 LINE,       22.375,          14.
 CIRCL,       22.875,         13.5,       22.375,         13.5
 LINE,       22.875,         9.75
 CIRCL,       23.375,         9.25,       23.375,         9.75
 LINE,       25.625,         9.25
*Rigid Body, ref node=refPt, analytical surface=tool
*End Part
**  
*Assembly, name=Assembly
**  
*Instance, name=bore-1, part=bore
          0.,     5.058361,           0.
*End Instance
**  
*Instance, name=seal-1, part=seal
*End Instance
**  
*Instance, name=shaft-1, part=shaft
          0.,    -1.088086,           0.
*End Instance
**  
*Instance, name=spring-1, part=spring
          0.,    -6.338086,           0.
*End Instance
**  
*Instance, name=tool-1, part=tool
          0.,    -9.838086,           0.
*End Instance
**  
*Nset, nset=boreRefPt,instance=bore-1
 1,
*Nset, nset=fix-springback, instance=seal-1
 5,
*Nset, nset=shaftRefPt,instance=shaft-1
 1,  
*Nset, nset=springRefPt, instance=spring-1
 89,
*Nset, nset=toolRefPt,instance=tool-1
 1,
*End Assembly
** 
** MATERIALS
** 
*Material, name=rubber
*Hyperelastic, ogden, test data input
*Biaxial Test Data
       0.,       0.
 0.049647, 0.002247
 0.107969,  0.00528
 0.167149, 0.008538
 0.228591, 0.011909
  0.28897,  0.01528
 0.347017, 0.018762
  0.40383, 0.022246
 0.461398, 0.025953
  0.51492, 0.029885
  0.56899, 0.033593
 0.618431,   0.0373
 0.670101, 0.041346
 0.718035, 0.045165
 0.765967,  0.04921
 0.810197, 0.053367
 0.856005, 0.057299
  0.89804, 0.061231
 0.940349, 0.065164
 0.980533, 0.069432
** ... 46 like lines cut
*Planar Test Data
       0.,       0.
 0.072765, 0.004042
 0.129187, 0.008719
 0.195459, 0.012682
 0.249578, 0.016962
 0.297236, 0.021717
  0.35097, 0.025522
 0.398628, 0.030119
 0.447564, 0.034399
 0.492727, 0.038204
 0.538115, 0.042643
 0.581166, 0.046606
 0.623002,  0.05152
 0.663303, 0.055959
  0.70386, 0.060477
  0.74333, 0.065153
 0.781776, 0.070543
 0.819262, 0.074664
 0.857899, 0.078627
 0.895002, 0.083066
** ... 41 like lines cut
*Uniaxial Test Data
       0.,       0.
 0.077593, 0.004784
 0.140347, 0.011188
 0.196163, 0.017033
  0.24673, 0.022298
 0.295183, 0.026814
 0.340009, 0.031413
 0.382455, 0.036677
 0.423915, 0.041669
 0.463503,  0.04798
 0.501165, 0.054141
 0.537965, 0.058979
 0.574367, 0.064782
 0.608208, 0.069325
 0.642918, 0.074739
 0.675713, 0.080953
 0.708264, 0.085224
 0.740188, 0.090725
  0.77134, 0.095822
 0.801163, 0.101114
** ... 36 like lines cut
*Material, name=steel
*Elastic
205000., 0.3
** 
