*Heading
** Job name: CHD4Full_FullFix_sv05 Model name: CH4_sym05_aalto_fix
** Generated by: Abaqus/CAE 2020.HF3
*Preprint, echo=NO, model=NO, history=NO, contact=NO
**
** PARTS
**
*Part, name=Part-1
*End Part
**  
**
** ASSEMBLY
**
*Assembly, name=Assembly
**  
*Instance, name=Part-1-1, part=Part-1
*Node
      1,          7.5,   1.39999998,           0.
      2,   1.42828572,   1.39999998,           0.
      3,  -1.42828572,   1.39999998,           0.
      4,         -7.5,   1.39999998,           0.
      5,         -7.5,   1.39999998,   0.49000001
      6,  -1.42828572,   1.39999998,   0.49000001
      7,   1.42828572,   1.39999998,   0.49000001
      8,          7.5,   1.39999998,   0.49000001
      9,         -7.5,           0.,   0.49000001
     10,          -2.,           0.,   0.49000001
     11,          -2.,           0., 9.53674295e-09
     12,         -7.5,           0., 9.53674295e-09
     13,         -7.5,  -1.39999998,   0.49000001
     14,  -1.42828572,  -1.39999998,   0.49000001
     15,  -1.42828572,  -1.39999998, 9.53674295e-09
     16,         -7.5,  -1.39999998, 9.53674295e-09
     17,          7.5,  -1.39999998,   0.49000001
     18,   1.42828572,  -1.39999998,   0.49000001
     19,   1.42828572,  -1.39999998, 9.53674295e-09
     20,          7.5,  -1.39999998, 9.53674295e-09
** ... 39733 like lines cut
*Element, type=C3D8R
   1, 3361, 3553,  340,   10, 5042, 5233, 1332,  345
   2, 3553, 3552,  339,  340, 5233, 5234, 1331, 1332
   3, 3552, 3551,  338,  339, 5234, 5235, 1330, 1331
   4, 3551, 3550,  337,  338, 5235, 5236, 1329, 1330
   5, 3550, 3549,  336,  337, 5236, 5237, 1328, 1329
   6, 3549, 3548,  335,  336, 5237, 5238, 1327, 1328
   7, 3548, 3547,  334,  335, 5238, 5239, 1326, 1327
   8, 3547, 3546,  333,  334, 5239, 5240, 1325, 1326
   9, 3546, 3545,  332,  333, 5240, 5241, 1324, 1325
  10, 3545, 3544,  331,  332, 5241, 5242, 1323, 1324
  11, 3544, 3543,  330,  331, 5242, 5243, 1322, 1323
  12, 3543, 3542,  329,  330, 5243, 5244, 1321, 1322
  13, 3542, 3541,  328,  329, 5244, 5245, 1320, 1321
  14, 3541, 3540,  327,  328, 5245, 5246, 1319, 1320
  15, 3540, 3539,  326,  327, 5246, 5247, 1318, 1319
  16, 3539, 3538,  325,  326, 5247, 5248, 1317, 1318
  17, 3538, 3537,  324,  325, 5248, 5249, 1316, 1317
  18, 3537, 3536,  323,  324, 5249, 5250, 1315, 1316
  19, 3536, 3535,  322,  323, 5250, 5251, 1314, 1315
  20, 3535, 3534,  321,  322, 5251, 5252, 1313, 1314
** ... 31630 like lines cut
*Nset, nset=Sample, generate
     1,  39753,      1
*Elset, elset=Sample, generate
     1,  31650,      1
** Section: Section-1
*Solid Section, elset=Sample, material=CP1000_SV05
,
*End Instance
**  
*Nset, nset=Disp, instance=Part-1-1
 39066, 39067, 39070, 39094, 39109, 39122, 39129, 39130, 39138, 39139, 39141, 39149, 39163, 39165, 39191, 39192
 39204, 39238, 39250, 39261, 39269, 39274, 39282, 39283, 39284, 39285, 39286
*Elset, elset=Disp, instance=Part-1-1
 31259, 31260, 31285, 31286, 31311, 31312, 31337, 31338, 31363, 31364, 31389, 31390, 31415, 31416, 31441, 31442
*Nset, nset=topfix, instance=Part-1-1
 36683, 36779, 36786, 36796, 37043, 37044, 37045, 37046, 37047, 37048, 37049, 37065, 37066, 37078, 37079, 37080
 37081, 37082, 37083, 37084, 37154, 37176, 37288, 37289, 37332, 37359, 37372, 39052, 39053, 39054, 39055, 39056
 39057, 39058, 39059, 39060, 39061, 39062, 39063, 39064, 39065, 39066, 39067, 39068, 39069, 39070, 39071, 39072
 39073, 39074, 39075, 39076, 39077, 39078, 39079, 39080, 39081, 39082, 39083, 39084, 39085, 39086, 39087, 39088
 39089, 39090, 39091, 39092, 39093, 39094, 39095, 39096, 39097, 39098, 39099, 39100, 39101, 39102, 39103, 39104
 39105, 39106, 39107, 39108, 39109, 39110, 39111, 39112, 39113, 39114, 39115, 39116, 39117, 39118, 39119, 39120
 39121, 39122, 39123, 39124, 39125, 39126, 39127, 39128, 39129, 39130, 39131, 39132, 39133, 39134, 39135, 39136
 39137, 39138, 39139, 39140, 39141, 39142, 39143, 39144, 39145, 39146, 39147, 39148, 39149, 39150, 39151, 39152
 39153, 39154, 39155, 39156, 39157, 39158, 39159, 39160, 39161, 39162, 39163, 39164, 39165, 39166, 39167, 39168
 39169, 39170, 39171, 39172, 39173, 39174, 39175, 39176, 39177, 39178, 39179, 39180, 39181, 39182, 39183, 39184
 39185, 39186, 39187, 39188, 39189, 39190, 39191, 39192, 39193, 39194, 39195, 39196, 39197, 39198, 39199, 39200
 39201, 39202, 39203, 39204, 39205, 39206, 39207, 39208, 39209, 39210, 39211, 39212, 39213, 39214, 39215, 39216
 39217, 39218, 39219, 39220, 39221, 39222, 39223, 39224, 39225, 39226, 39227, 39228, 39229, 39230, 39231, 39232
 39233, 39234, 39235, 39236, 39237, 39238, 39239, 39240, 39241, 39242, 39243, 39244, 39245, 39246, 39247, 39248
 39249, 39250, 39251, 39252, 39253, 39254, 39255, 39256, 39257, 39258, 39259, 39260, 39261, 39262, 39263, 39264
 39265, 39266, 39267, 39268, 39269, 39270, 39271, 39272, 39273, 39274, 39275, 39276, 39277, 39278, 39279, 39280
 39281, 39282, 39283, 39284, 39285, 39286, 39287, 39288, 39289, 39290, 39291, 39292, 39293, 39294, 39295, 39296
 39297, 39298, 39299, 39300, 39301, 39302, 39303, 39304, 39305, 39306, 39307, 39308, 39309, 39310, 39311, 39312
 39313, 39314, 39315, 39316, 39317, 39318, 39319, 39320, 39321, 39322, 39323, 39324, 39325, 39326, 39327, 39328
 39329, 39330, 39331, 39332, 39333, 39334, 39335, 39336, 39337, 39338, 39339, 39340, 39341, 39342, 39343, 39344
** ... 4 like lines cut
*Elset, elset=topfix, instance=Part-1-1, generate
 31235,  31442,      1
*Nset, nset=y_fix, instance=Part-1-1
 37872, 37941, 37942, 38077, 38079, 38090, 38173, 38174, 38234, 38256, 38265, 38266, 38318, 38319, 38320, 38361
 38375, 38455, 38458, 38594, 38595, 38596, 38644, 38645, 38663, 38684, 38691, 39403, 39404, 39405, 39406, 39407
 39408, 39409, 39410, 39411, 39412, 39413, 39414, 39415, 39416, 39417, 39418, 39419, 39420, 39421, 39422, 39423
 39424, 39425, 39426, 39427, 39428, 39429, 39430, 39431, 39432, 39433, 39434, 39435, 39436, 39437, 39438, 39439
 39440, 39441, 39442, 39443, 39444, 39445, 39446, 39447, 39448, 39449, 39450, 39451, 39452, 39453, 39454, 39455
 39456, 39457, 39458, 39459, 39460, 39461, 39462, 39463, 39464, 39465, 39466, 39467, 39468, 39469, 39470, 39471
 39472, 39473, 39474, 39475, 39476, 39477, 39478, 39479, 39480, 39481, 39482, 39483, 39484, 39485, 39486, 39487
 39488, 39489, 39490, 39491, 39492, 39493, 39494, 39495, 39496, 39497, 39498, 39499, 39500, 39501, 39502, 39503
 39504, 39505, 39506, 39507, 39508, 39509, 39510, 39511, 39512, 39513, 39514, 39515, 39516, 39517, 39518, 39519
 39520, 39521, 39522, 39523, 39524, 39525, 39526, 39527, 39528, 39529, 39530, 39531, 39532, 39533, 39534, 39535
 39536, 39537, 39538, 39539, 39540, 39541, 39542, 39543, 39544, 39545, 39546, 39547, 39548, 39549, 39550, 39551
 39552, 39553, 39554, 39555, 39556, 39557, 39558, 39559, 39560, 39561, 39562, 39563, 39564, 39565, 39566, 39567
 39568, 39569, 39570, 39571, 39572, 39573, 39574, 39575, 39576, 39577, 39578, 39579, 39580, 39581, 39582, 39583
 39584, 39585, 39586, 39587, 39588, 39589, 39590, 39591, 39592, 39593, 39594, 39595, 39596, 39597, 39598, 39599
 39600, 39601, 39602, 39603, 39604, 39605, 39606, 39607, 39608, 39609, 39610, 39611, 39612, 39613, 39614, 39615
 39616, 39617, 39618, 39619, 39620, 39621, 39622, 39623, 39624, 39625, 39626, 39627, 39628, 39629, 39630, 39631
 39632, 39633, 39634, 39635, 39636, 39637, 39638, 39639, 39640, 39641, 39642, 39643, 39644, 39645, 39646, 39647
 39648, 39649, 39650, 39651, 39652, 39653, 39654, 39655, 39656, 39657, 39658, 39659, 39660, 39661, 39662, 39663
 39664, 39665, 39666, 39667, 39668, 39669, 39670, 39671, 39672, 39673, 39674, 39675, 39676, 39677, 39678, 39679
 39680, 39681, 39682, 39683, 39684, 39685, 39686, 39687, 39688, 39689, 39690, 39691, 39692, 39693, 39694, 39695
** ... 4 like lines cut
*Elset, elset=y_fix, instance=Part-1-1, generate
 31443,  31650,      1
*Nset, nset=z_symm, instance=Part-1-1
     1,     2,     3,     4,    11,    12,    15,    16,    19,    20,    23,    24,    25,    26,    27,    28
    29,    30,    31,    32,    33,    34,    35,    36,    37,    38,    39,    40,    41,    42,    43,    44
    45,    46,    47,    48,    49,    50,    51,    52,    53,    54,    55,    56,    57,    58,    59,    60
    61,    62,    63,    64,    65,    66,    67,    68,    69,    70,    71,    72,    73,    74,    75,    76
    77,    78,    79,    80,    81,    82,    83,    84,    85,    86,    87,    88,    89,    90,    91,    92
    93,    94,    95,    96,    97,    98,    99,   100,   101,   102,   103,   104,   105,   106,   107,   108
   109,   110,   111,   112,   113,   114,   115,   116,   117,   118,   119,   120,   121,   122,   123,   124
   125,   126,   127,   128,   129,   130,   131,   132,   133,   134,   135,   136,   137,   138,   139,   140
   141,   142,   143,   144,   349,   350,   351,   352,   353,   354,   355,   356,   357,   358,   359,   360
   361,   362,   363,   364,   365,   366,   367,   368,   369,   370,   371,   372,   373,   374,   375,   376
   377,   378,   379,   380,   381,   382,   383,   384,   385,   386,   387,   388,   389,   390,   391,   392
   393,   394,   395,   396,   397,   398,   399,   400,   401,   402,   403,   404,   405,   406,   407,   408
   477,   478,   479,   480,   481,   482,   483,   484,   485,   486,   487,   488,   489,   490,   491,   492
   493,   494,   495,   496,   497,   498,   499,   500,   501,   502,   503,   504,   505,   506,   507,   508
   509,   510,   511,   512,   513,   514,   515,   516,   517,   518,   519,   520,   521,   522,   523,   524
   525,   526,   527,   528,   529,   530,   531,   532,   533,   534,   535,   536,   605,   606,   607,   608
   609,   610,   611,   612,   613,   614,   615,   616,   617,   618,   619,   620,   621,   622,   623,   624
   625,   626,   627,   628,   629,   630,   631,   632,   633,   634,   635,   636,   637,   638,   639,   640
   641,   642,   643,   644,   645,   646,   647,   648,   649,   650,   651,   652,   653,   654,   655,   656
   657,   658,   659,   660,   661,   662,   663,   664,   733,   734,   735,   736,   737,   738,   739,   740
** ... 430 like lines cut
*Elset, elset=z_symm, instance=Part-1-1
  3905,  3906,  3907,  3908,  3909,  3910,  3911,  3912,  3913,  3914,  3915,  3916,  3917,  3918,  3919,  3920
  3921,  3922,  3923,  3924,  3925,  3926,  3927,  3928,  3929,  3930,  3931,  3932,  3933,  3934,  3935,  3936
  3937,  3938,  3939,  3940,  3941,  3942,  3943,  3944,  3945,  3946,  3947,  3948,  3949,  3950,  3951,  3952
  3953,  3954,  3955,  3956,  3957,  3958,  3959,  3960,  3961,  3962,  3963,  3964,  3965,  3966,  3967,  3968
  3969,  3970,  3971,  3972,  3973,  3974,  3975,  3976,  3977,  3978,  3979,  3980,  3981,  3982,  3983,  3984
  3985,  3986,  3987,  3988,  3989,  3990,  3991,  3992,  3993,  3994,  3995,  3996,  3997,  3998,  3999,  4000
  4001,  4002,  4003,  4004,  4005,  4006,  4007,  4008,  4009,  4010,  4011,  4012,  4013,  4014,  4015,  4016
  4017,  4018,  4019,  4020,  4021,  4022,  4023,  4024,  4025,  4026,  4027,  4028,  4029,  4030,  4031,  4032
  4033,  4034,  4035,  4036,  4037,  4038,  4039,  4040,  4041,  4042,  4043,  4044,  4045,  4046,  4047,  4048
  4049,  4050,  4051,  4052,  4053,  4054,  4055,  4056,  4057,  4058,  4059,  4060,  4061,  4062,  4063,  4064
  4065,  4066,  4067,  4068,  4069,  4070,  4071,  4072,  4073,  4074,  4075,  4076,  4077,  4078,  4079,  4080
  4081,  4082,  4083,  4084,  4085,  4086,  4087,  4088,  4089,  4090,  4091,  4092,  4093,  4094,  4095,  4096
  4097,  4098,  4099,  4100,  4101,  4102,  4103,  4104,  4105,  4106,  4107,  4108,  4109,  4110,  4111,  4112
  4113,  4114,  4115,  4116,  4117,  4118,  4119,  4120,  4121,  4122,  4123,  4124,  4125,  4126,  4127,  4128
  4129,  4130,  4131,  4132,  4133,  4134,  4135,  4136,  4137,  4138,  4139,  4140,  4141,  4142,  4143,  4144
  4145,  4146,  4147,  4148,  4149,  4150,  4151,  4152,  4153,  4154,  4155,  4156,  4157,  4158,  4159,  4160
  4161,  4162,  4163,  4164,  4165,  4166,  4167,  4168,  4169,  4170,  4171,  4172,  4173,  4174,  4175,  4176
  4177,  4178,  4179,  4180,  4181,  4182,  4183,  4184,  4185,  4186,  4187,  4188,  4189,  4190,  4191,  4192
  4193,  4194,  4195,  4196,  4197,  4198,  4199,  4200,  4201,  4202,  4203,  4204,  4205,  4206,  4207,  4208
  4209,  4210,  4211,  4212,  4213,  4214,  4215,  4216,  4217,  4218,  4219,  4220,  4221,  4222,  4223,  4224
** ... 413 like lines cut
*End Assembly
*Amplitude, name=Amp-1
             0.,              0.,            0.01,              1.
** 
** MATERIALS
** 
*Material, name=CP1000_SV05
*Density
 7.89e-09,
*Elastic
210000., 0.3
*Plastic
 839.646,     0.
 880.025, 0.0003
 906.975, 0.0005
 926.275,  0.001
 926.275,  0.002
 939.393,  0.003
 949.756,  0.004
 958.495,  0.005
 966.134,  0.006
  972.96,  0.007
  979.15,  0.008
 984.823,  0.009
 990.061,   0.01
 1027.47,   0.02
 1049.75,   0.03
 1064.31,   0.04
 1074.41,   0.05
 1081.81,   0.06
 1087.49,   0.07
 1092.06,   0.08
** ... 60 like lines cut
*Material, name=CP1000_sv02
*Density
 7.89e-09,
*Elastic
210000., 0.3
*Plastic
 888.926,     0.
 906.607, 0.0003
 920.864, 0.0005
 920.864,  0.001
 933.332,  0.002
 943.083,  0.003
   951.5,  0.004
 959.048,  0.005
 965.946,  0.006
 972.322,  0.007
 978.256,  0.008
 983.805,  0.009
 989.012,   0.01
  1027.5,   0.02
 1050.28,   0.03
 1064.28,   0.04
 1073.15,   0.05
 1078.94,   0.06
 1082.89,   0.07
  1085.7,   0.08
** ... 60 like lines cut
** 
** BOUNDARY CONDITIONS
** 
** Name: Yfix Type: Symmetry/Antisymmetry/Encastre
*Boundary
y_fix, ENCASTRE
** Name: zsymm Type: Symmetry/Antisymmetry/Encastre
*Boundary
z_symm, ZSYMM
** ----------------------------------------------------------------
** 
** STEP: Move
** 
*Step, name=Move, nlgeom=YES
*Dynamic, Explicit
, 0.01
*Bulk Viscosity
0.06, 1.2
** 
** BOUNDARY CONDITIONS
** 
** Name: Move Type: Displacement/Rotation
*Boundary, amplitude=Amp-1
Disp, 2, 2, 2.5
** Name: TopFix Type: Displacement/Rotation
*Boundary
topfix, 1, 1
topfix, 3, 3
topfix, 4, 4
topfix, 5, 5
topfix, 6, 6
** 
** OUTPUT REQUESTS
** 
*Restart, write, number interval=1, time marks=NO
** 
** FIELD OUTPUT: F-Output-1
** 
*Output, field, number interval=200
*Node Output
RF, U
*Element Output, directions=YES
LE, PE, PEEQ, S, TRIAX
** 
** HISTORY OUTPUT: H-Output-1
** 
*Output, history, variable=PRESELECT
*End Step
