 Abaqus/Standard 2023.HF4                  DATE 22-Sep-2024 TIME 21:37:34
 SUMMARY OF JOB INFORMATION:
 STEP  INC ATT SEVERE EQUIL TOTAL  TOTAL      STEP       INC OF       DOF    IF
               DISCON ITERS ITERS  TIME/    TIME/LPF    TIME/LPF    MONITOR RIKS
               ITERS               FREQ
   1     1   1     0     1     1  720.       720.       720.0     
   1     2   1     0     1     1  1.44e+03   1.44e+03   720.0     
   1     3   1     0     1     1  2.16e+03   2.16e+03   720.0     
   1     4   1     0     1     1  2.88e+03   2.88e+03   720.0     
   1     5   1     0     1     1  3.60e+03   3.60e+03   720.0     
   1     6   1     0     1     1  4.32e+03   4.32e+03   720.0     
   1     7   1     0     1     1  5.04e+03   5.04e+03   720.0     
   1     8   1     0     1     1  5.76e+03   5.76e+03   720.0     
   1     9   1     0     1     1  6.48e+03   6.48e+03   720.0     
   1    10   1     0     1     1  7.20e+03   7.20e+03   720.0     
   2     1   1     0     1     1  7.21e+03   10.6       10.62     
   2     2   1     0     1     1  7.22e+03   21.2       10.62     
   2     3   1     0     2     2  7.23e+03   31.9       10.62     
   2     4   1     0     3     3  7.24e+03   42.5       10.62     
   2     5   1     0     3     3  7.25e+03   53.1       10.62     
