1

   Abaqus 2023.HF4                                  Date 22-Sep-2024   Time 21:37:29
   For use by AALTO UNIVERSITY under license from Dassault Systemes or its subsidiary.

                                                                                 
                                                                                 
 STEP    1     INCREMENT     1     STEP TIME    0.00    


                        S T E P       1     C O U P L E D - T E M P E R A T U R E - D I S P L A C E M E N T   A N A L Y S I S


                                                                                          

          FIXED TIME INCREMENTS
          TIME INCREMENT IS                                     720.    
          TIME PERIOD IS                                       7.200E+03

          CREEP AND SWELLING EFFECTS ARE OMITTED IN THIS STEP
          THE RATE DEPENDENCY WILL BE CONSIDERED IN THIS STEP

          CREEP AND SWELLING EFFECTS WILL BE IGNORED.

 CONVERGENCE TOLERANCE PARAMETERS FOR FORCE    
     CRITERION FOR RESIDUAL FORCE     FOR A NONLINEAR PROBLEM          5.000E-03
     CRITERION FOR DISP.    CORRECTION IN A NONLINEAR PROBLEM          1.000E-02
     INITIAL VALUE OF TIME AVERAGE FORCE                               1.000E-02
     AVERAGE FORCE     IS TIME AVERAGE FORCE    
     ALTERNATE CRIT. FOR RESIDUAL FORCE     FOR A NONLINEAR PROBLEM    2.000E-02
     CRITERION FOR ZERO FORCE     RELATIVE TO TIME AVRG. FORCE         1.000E-05
     CRITERION FOR RESIDUAL FORCE     WHEN THERE IS ZERO FLUX          1.000E-05
     CRITERION FOR DISP.    CORRECTION WHEN THERE IS ZERO FLUX         1.000E-03
     CRITERION FOR RESIDUAL FORCE     FOR A LINEAR INCREMENT           1.000E-08
     FIELD CONVERSION RATIO                                             1.00    
     CRITERION FOR ZERO FORCE     REL. TO TIME AVRG. MAX. FORCE        1.000E-05
     CRITERION FOR ZERO DISP.    RELATIVE TO CHARACTERISTIC LENGTH     1.000E-08

 CONVERGENCE TOLERANCE PARAMETERS FOR HEAT FLUX
     CRITERION FOR RESIDUAL HEAT FLUX FOR A NONLINEAR PROBLEM          5.000E-03
     CRITERION FOR TEMP.    CORRECTION IN A NONLINEAR PROBLEM          1.000E-02
     INITIAL VALUE OF TIME AVERAGE HEAT FLUX                           1.000E-02
     AVERAGE HEAT FLUX IS TIME AVERAGE HEAT FLUX
     ALTERNATE CRIT. FOR RESIDUAL HEAT FLUX FOR A NONLINEAR PROBLEM    2.000E-02
     CRITERION FOR ZERO HEAT FLUX RELATIVE TO TIME AVRG. HEAT FLUX     1.000E-05
     CRITERION FOR RESIDUAL HEAT FLUX WHEN THERE IS ZERO FLUX          1.000E-05
     CRITERION FOR TEMP.    CORRECTION WHEN THERE IS ZERO FLUX         1.000E-03
     CRITERION FOR RESIDUAL HEAT FLUX FOR A LINEAR INCREMENT           1.000E-08
     FIELD CONVERSION RATIO                                             1.00    
     CRITERION FOR ZERO HEAT FLUX REL. TO TIME AVRG. MAX. HEAT FLUX    1.000E-05

     VOLUMETRIC STRAIN COMPATIBILITY TOLERANCE FOR HYBRID SOLIDS       1.000E-05
     AXIAL STRAIN COMPATIBILITY TOLERANCE FOR HYBRID BEAMS             1.000E-05
     TRANS. SHEAR STRAIN COMPATIBILITY TOLERANCE FOR HYBRID BEAMS      1.000E-05
     SOFT CONTACT CONSTRAINT COMPATIBILITY TOLERANCE FOR P>P0          5.000E-03
     SOFT CONTACT CONSTRAINT COMPATIBILITY TOLERANCE FOR P=0.0         0.100    
     CONTACT FORCE ERROR TOLERANCE FOR CONVERT SDI=YES                 1.00    
     DISPLACEMENT COMPATIBILITY TOLERANCE FOR DCOUP ELEMENTS           1.000E-05
     ROTATION COMPATIBILITY TOLERANCE FOR DCOUP ELEMENTS               1.000E-05

 EQUILIBRIUM WILL BE CHECKED FOR SEVERE DISCONTINUITY ITERATIONS

 ITERATION CONTROL PARAMETERS:
     FIRST EQUILIBRIUM ITERATION FOR CONSECUTIVE DIVERGENCE CHECK              4
     EQUILIBRIUM ITERATION AFTER WHICH ALTERNATE RESIDUAL IS USED              9
     MAXIMUM EQUILIBRIUM ITERATIONS ALLOWED                                   16
     MAXIMUM ITERATIONS FOR SEVERE DISCONTINUITIES                            12
     GLOBAL STABILIZATION CONTROL IS NOT USED

          PRINT OF INCREMENT NUMBER, TIME, ETC., EVERY    1  INCREMENTS

     THE MAXIMUM NUMBER OF INCREMENTS IN THIS STEP IS                 1000000

          LARGE DISPLACEMENT THEORY WILL BE USED

          UNSYMMETRIC MATRIX STORAGE AND SOLUTION WILL BE USED

     LINEAR EXTRAPOLATION WILL BE USED

     CHARACTERISTIC ELEMENT LENGTH     2.261E-04

     DETAILS REGARDING ACTUAL SOLUTION WAVEFRONT REQUESTED

     DETAILED OUTPUT OF DIAGNOSTICS TO DATABASE REQUESTED

     PRINT OF INCREMENT NUMBER, TIME, ETC., TO THE MESSAGE FILE EVERY     1  INCREMENTS

     ELEMENT OPERATIONS WILL BE CARRIED OUT IN PARALLEL USING   8 THREADS ON 1 DOMAIN

     PARALLEL CONTACT TRACKING ENABLED


     COLLECTING MODEL CONSTRAINT INFORMATION FOR OVERCONSTRAINT CHECKS

     COLLECTING STEP CONSTRAINT INFORMATION FOR OVERCONSTRAINT CHECKS


  INCREMENT     1 STARTS. ATTEMPT NUMBER  1, TIME INCREMENT   720.    
 
     INITIAL ELEMENT LOAD BALANCE
            DOMAIN    1     THREAD    NUMBER OF ELEMENTS
                              1            8266
                              2            8592
                              3            8504
                              4            8376
                              5            8896
                              6            8408
                              7            8568
                              8            8664
 
	UNSYMMETRIC NEW DIRECT SPARSE SOLVER RUNNING ON
 	1 HOST x 1 MPI RANK PER HOST x 8 THREADS PER RANK
        NUMBER OF EQUATIONS:  215790
        NUMBER OF RHS:        1
        NUMBER OF FLOPS:      3.804e+11
        SOLVER ELAPSED TIME:  2.3s

               CONVERGENCE CHECKS FOR EQUILIBRIUM ITERATION     1


 AVERAGE FORCE                       0.00       TIME AVG. FORCE       1.000E-02
 ALL FORCE     RESIDUALS ARE ZERO
 ALL DISP.    INCREMENTS ARE ZERO
 ALL CORRECTION TO DISP.    ARE ZERO
          THERE IS ZERO FORCE     EVERYWHERE

 AVERAGE HEAT FLUX                   202.       TIME AVG. HEAT FLUX    202.    
 LARGEST RESIDUAL HEAT FLUX         1.191E-10   AT NODE       1797   DOF 11
   INSTANCE: SH115                                                                           
 LARGEST INCREMENT OF TEMP.          8.72       AT NODE          1   DOF 11
   INSTANCE: SH115                                                                           
 LARGEST CORRECTION TO TEMP.         8.72       AT NODE          1   DOF 11
   INSTANCE: SH115                                                                           
          THE HEAT FLUX EQUILIBRIUM RESPONSE WAS LINEAR IN THIS INCREMENT

 ITERATION SUMMARY FOR THE INCREMENT:   1 TOTAL ITERATIONS, OF WHICH
   0 ARE SEVERE DISCONTINUITY ITERATIONS AND  1 ARE EQUILIBRIUM ITERATIONS.

 TIME INCREMENT COMPLETED   720.    ,  FRACTION OF STEP COMPLETED  0.100    
 STEP TIME COMPLETED        720.    ,  TOTAL TIME COMPLETED         720.    


  INCREMENT     2 STARTS. ATTEMPT NUMBER  1, TIME INCREMENT   720.    
 
	UNSYMMETRIC NEW DIRECT SPARSE SOLVER RUNNING ON
 	1 HOST x 1 MPI RANK PER HOST x 8 THREADS PER RANK
        NUMBER OF EQUATIONS:  215790
        NUMBER OF RHS:        1
        NUMBER OF FLOPS:      3.804e+11
        SOLVER ELAPSED TIME:  2.2s

               CONVERGENCE CHECKS FOR EQUILIBRIUM ITERATION     1


 AVERAGE FORCE                       0.00       TIME AVG. FORCE       1.000E-02
 ALL FORCE     RESIDUALS ARE ZERO
 ALL DISP.    INCREMENTS ARE ZERO
 ALL CORRECTION TO DISP.    ARE ZERO
          THERE IS ZERO FORCE     EVERYWHERE

 AVERAGE HEAT FLUX                   120.       TIME AVG. HEAT FLUX    161.    
 LARGEST RESIDUAL HEAT FLUX        -1.301E-10   AT NODE      40079   DOF 11
   INSTANCE: SH115                                                                           
 LARGEST INCREMENT OF TEMP.          2.93       AT NODE        643   DOF 11
   INSTANCE: SH115                                                                           
 LARGEST CORRECTION TO TEMP.        -8.72       AT NODE          1   DOF 11
   INSTANCE: SH115                                                                           
          THE HEAT FLUX EQUILIBRIUM RESPONSE WAS LINEAR IN THIS INCREMENT

 ITERATION SUMMARY FOR THE INCREMENT:   1 TOTAL ITERATIONS, OF WHICH
   0 ARE SEVERE DISCONTINUITY ITERATIONS AND  1 ARE EQUILIBRIUM ITERATIONS.

 TIME INCREMENT COMPLETED   720.    ,  FRACTION OF STEP COMPLETED  0.200    
 STEP TIME COMPLETED       1.440E+03,  TOTAL TIME COMPLETED        1.440E+03


  INCREMENT     3 STARTS. ATTEMPT NUMBER  1, TIME INCREMENT   720.    
 
	UNSYMMETRIC NEW DIRECT SPARSE SOLVER RUNNING ON
 	1 HOST x 1 MPI RANK PER HOST x 8 THREADS PER RANK
        NUMBER OF EQUATIONS:  215790
        NUMBER OF RHS:        1
        NUMBER OF FLOPS:      3.804e+11
        SOLVER ELAPSED TIME:  2.1s

               CONVERGENCE CHECKS FOR EQUILIBRIUM ITERATION     1


 AVERAGE FORCE                       0.00       TIME AVG. FORCE       1.000E-02
 ALL FORCE     RESIDUALS ARE ZERO
 ALL DISP.    INCREMENTS ARE ZERO
 ALL CORRECTION TO DISP.    ARE ZERO
          THERE IS ZERO FORCE     EVERYWHERE

 AVERAGE HEAT FLUX                   36.4       TIME AVG. HEAT FLUX    120.    
 LARGEST RESIDUAL HEAT FLUX        -4.957E-11   AT NODE      16301   DOF 11
   INSTANCE: SH115                                                                           
 LARGEST INCREMENT OF TEMP.         0.946       AT NODE        643   DOF 11
   INSTANCE: SH115                                                                           
 LARGEST CORRECTION TO TEMP.        -2.00       AT NODE      41256   DOF 11
   INSTANCE: SH115                                                                           
          THE HEAT FLUX EQUILIBRIUM RESPONSE WAS LINEAR IN THIS INCREMENT

 ITERATION SUMMARY FOR THE INCREMENT:   1 TOTAL ITERATIONS, OF WHICH
   0 ARE SEVERE DISCONTINUITY ITERATIONS AND  1 ARE EQUILIBRIUM ITERATIONS.

 TIME INCREMENT COMPLETED   720.    ,  FRACTION OF STEP COMPLETED  0.300    
 STEP TIME COMPLETED       2.160E+03,  TOTAL TIME COMPLETED        2.160E+03


  INCREMENT     4 STARTS. ATTEMPT NUMBER  1, TIME INCREMENT   720.    
 
	UNSYMMETRIC NEW DIRECT SPARSE SOLVER RUNNING ON
 	1 HOST x 1 MPI RANK PER HOST x 8 THREADS PER RANK
        NUMBER OF EQUATIONS:  215790
        NUMBER OF RHS:        1
        NUMBER OF FLOPS:      3.804e+11
        SOLVER ELAPSED TIME:  2.0s

               CONVERGENCE CHECKS FOR EQUILIBRIUM ITERATION     1


 AVERAGE FORCE                       0.00       TIME AVG. FORCE       1.000E-02
 ALL FORCE     RESIDUALS ARE ZERO
 ALL DISP.    INCREMENTS ARE ZERO
 ALL CORRECTION TO DISP.    ARE ZERO
          THERE IS ZERO FORCE     EVERYWHERE

 AVERAGE HEAT FLUX                   5.23       TIME AVG. HEAT FLUX    91.0    
 LARGEST RESIDUAL HEAT FLUX        -3.686E-11   AT NODE      41903   DOF 11
   INSTANCE: SH115                                                                           
 LARGEST INCREMENT OF TEMP.         0.290       AT NODE        643   DOF 11
   INSTANCE: SH115                                                                           
 LARGEST CORRECTION TO TEMP.       -0.656       AT NODE        643   DOF 11
   INSTANCE: SH115                                                                           
          THE HEAT FLUX EQUILIBRIUM RESPONSE WAS LINEAR IN THIS INCREMENT

 ITERATION SUMMARY FOR THE INCREMENT:   1 TOTAL ITERATIONS, OF WHICH
   0 ARE SEVERE DISCONTINUITY ITERATIONS AND  1 ARE EQUILIBRIUM ITERATIONS.

 TIME INCREMENT COMPLETED   720.    ,  FRACTION OF STEP COMPLETED  0.400    
 STEP TIME COMPLETED       2.880E+03,  TOTAL TIME COMPLETED        2.880E+03


  INCREMENT     5 STARTS. ATTEMPT NUMBER  1, TIME INCREMENT   720.    
 
	UNSYMMETRIC NEW DIRECT SPARSE SOLVER RUNNING ON
 	1 HOST x 1 MPI RANK PER HOST x 8 THREADS PER RANK
        NUMBER OF EQUATIONS:  215790
        NUMBER OF RHS:        1
        NUMBER OF FLOPS:      3.804e+11
        SOLVER ELAPSED TIME:  2.0s

               CONVERGENCE CHECKS FOR EQUILIBRIUM ITERATION     1


 AVERAGE FORCE                       0.00       TIME AVG. FORCE       1.000E-02
 ALL FORCE     RESIDUALS ARE ZERO
 ALL DISP.    INCREMENTS ARE ZERO
 ALL CORRECTION TO DISP.    ARE ZERO
          THERE IS ZERO FORCE     EVERYWHERE

 AVERAGE HEAT FLUX                   1.58       TIME AVG. HEAT FLUX    73.1    
 LARGEST RESIDUAL HEAT FLUX         4.167E-11   AT NODE      40933   DOF 11
   INSTANCE: SH115                                                                           
 LARGEST INCREMENT OF TEMP.         8.816E-02   AT NODE        643   DOF 11
   INSTANCE: SH115                                                                           
 LARGEST CORRECTION TO TEMP.       -0.202       AT NODE        643   DOF 11
   INSTANCE: SH115                                                                           
          THE HEAT FLUX EQUILIBRIUM RESPONSE WAS LINEAR IN THIS INCREMENT

 ITERATION SUMMARY FOR THE INCREMENT:   1 TOTAL ITERATIONS, OF WHICH
   0 ARE SEVERE DISCONTINUITY ITERATIONS AND  1 ARE EQUILIBRIUM ITERATIONS.

 TIME INCREMENT COMPLETED   720.    ,  FRACTION OF STEP COMPLETED  0.500    
 STEP TIME COMPLETED       3.600E+03,  TOTAL TIME COMPLETED        3.600E+03


  INCREMENT     6 STARTS. ATTEMPT NUMBER  1, TIME INCREMENT   720.    
 
	UNSYMMETRIC NEW DIRECT SPARSE SOLVER RUNNING ON
 	1 HOST x 1 MPI RANK PER HOST x 8 THREADS PER RANK
        NUMBER OF EQUATIONS:  215790
        NUMBER OF RHS:        1
        NUMBER OF FLOPS:      3.804e+11
        SOLVER ELAPSED TIME:  2.0s

               CONVERGENCE CHECKS FOR EQUILIBRIUM ITERATION     1


 AVERAGE FORCE                       0.00       TIME AVG. FORCE       1.000E-02
 ALL FORCE     RESIDUALS ARE ZERO
 ALL DISP.    INCREMENTS ARE ZERO
 ALL CORRECTION TO DISP.    ARE ZERO
          THERE IS ZERO FORCE     EVERYWHERE

 AVERAGE HEAT FLUX                  0.477       TIME AVG. HEAT FLUX    61.0    
 LARGEST RESIDUAL HEAT FLUX         3.826E-11   AT NODE      41152   DOF 11
   INSTANCE: SH115                                                                           
 LARGEST INCREMENT OF TEMP.         2.674E-02   AT NODE        643   DOF 11
   INSTANCE: SH115                                                                           
 LARGEST CORRECTION TO TEMP.       -6.142E-02   AT NODE        643   DOF 11
   INSTANCE: SH115                                                                           
          THE HEAT FLUX EQUILIBRIUM RESPONSE WAS LINEAR IN THIS INCREMENT

 ITERATION SUMMARY FOR THE INCREMENT:   1 TOTAL ITERATIONS, OF WHICH
   0 ARE SEVERE DISCONTINUITY ITERATIONS AND  1 ARE EQUILIBRIUM ITERATIONS.

 TIME INCREMENT COMPLETED   720.    ,  FRACTION OF STEP COMPLETED  0.600    
 STEP TIME COMPLETED       4.320E+03,  TOTAL TIME COMPLETED        4.320E+03


  INCREMENT     7 STARTS. ATTEMPT NUMBER  1, TIME INCREMENT   720.    
 
	UNSYMMETRIC NEW DIRECT SPARSE SOLVER RUNNING ON
 	1 HOST x 1 MPI RANK PER HOST x 8 THREADS PER RANK
        NUMBER OF EQUATIONS:  215790
        NUMBER OF RHS:        1
        NUMBER OF FLOPS:      3.804e+11
        SOLVER ELAPSED TIME:  2.0s

               CONVERGENCE CHECKS FOR EQUILIBRIUM ITERATION     1


 AVERAGE FORCE                       0.00       TIME AVG. FORCE       1.000E-02
 ALL FORCE     RESIDUALS ARE ZERO
 ALL DISP.    INCREMENTS ARE ZERO
 ALL CORRECTION TO DISP.    ARE ZERO
          THERE IS ZERO FORCE     EVERYWHERE

 AVERAGE HEAT FLUX                  0.144       TIME AVG. HEAT FLUX    52.3    
 LARGEST RESIDUAL HEAT FLUX         3.698E-11   AT NODE       6951   DOF 11
   INSTANCE: SH115                                                                           
 LARGEST INCREMENT OF TEMP.         8.108E-03   AT NODE        637   DOF 11
   INSTANCE: SH115                                                                           
 LARGEST CORRECTION TO TEMP.       -1.863E-02   AT NODE        643   DOF 11
   INSTANCE: SH115                                                                           
          THE HEAT FLUX EQUILIBRIUM RESPONSE WAS LINEAR IN THIS INCREMENT

 ITERATION SUMMARY FOR THE INCREMENT:   1 TOTAL ITERATIONS, OF WHICH
   0 ARE SEVERE DISCONTINUITY ITERATIONS AND  1 ARE EQUILIBRIUM ITERATIONS.

 TIME INCREMENT COMPLETED   720.    ,  FRACTION OF STEP COMPLETED  0.700    
 STEP TIME COMPLETED       5.040E+03,  TOTAL TIME COMPLETED        5.040E+03


  INCREMENT     8 STARTS. ATTEMPT NUMBER  1, TIME INCREMENT   720.    
 
	UNSYMMETRIC NEW DIRECT SPARSE SOLVER RUNNING ON
 	1 HOST x 1 MPI RANK PER HOST x 8 THREADS PER RANK
        NUMBER OF EQUATIONS:  215790
        NUMBER OF RHS:        1
        NUMBER OF FLOPS:      3.804e+11
        SOLVER ELAPSED TIME:  2.0s

               CONVERGENCE CHECKS FOR EQUILIBRIUM ITERATION     1


 AVERAGE FORCE                       0.00       TIME AVG. FORCE       1.000E-02
 ALL FORCE     RESIDUALS ARE ZERO
 ALL DISP.    INCREMENTS ARE ZERO
 ALL CORRECTION TO DISP.    ARE ZERO
          THERE IS ZERO FORCE     EVERYWHERE

 AVERAGE HEAT FLUX                  4.359E-02   TIME AVG. HEAT FLUX    45.8    
 LARGEST RESIDUAL HEAT FLUX        -3.847E-11   AT NODE      42952   DOF 11
   INSTANCE: SH115                                                                           
 LARGEST INCREMENT OF TEMP.         2.458E-03   AT NODE        637   DOF 11
   INSTANCE: SH115                                                                           
 LARGEST CORRECTION TO TEMP.       -5.649E-03   AT NODE        637   DOF 11
   INSTANCE: SH115                                                                           
          THE HEAT FLUX EQUILIBRIUM RESPONSE WAS LINEAR IN THIS INCREMENT

 ITERATION SUMMARY FOR THE INCREMENT:   1 TOTAL ITERATIONS, OF WHICH
   0 ARE SEVERE DISCONTINUITY ITERATIONS AND  1 ARE EQUILIBRIUM ITERATIONS.

 TIME INCREMENT COMPLETED   720.    ,  FRACTION OF STEP COMPLETED  0.800    
 STEP TIME COMPLETED       5.760E+03,  TOTAL TIME COMPLETED        5.760E+03


  INCREMENT     9 STARTS. ATTEMPT NUMBER  1, TIME INCREMENT   720.    
 
	UNSYMMETRIC NEW DIRECT SPARSE SOLVER RUNNING ON
 	1 HOST x 1 MPI RANK PER HOST x 8 THREADS PER RANK
        NUMBER OF EQUATIONS:  215790
        NUMBER OF RHS:        1
        NUMBER OF FLOPS:      3.804e+11
        SOLVER ELAPSED TIME:  2.0s

               CONVERGENCE CHECKS FOR EQUILIBRIUM ITERATION     1


 AVERAGE FORCE                       0.00       TIME AVG. FORCE       1.000E-02
 ALL FORCE     RESIDUALS ARE ZERO
 ALL DISP.    INCREMENTS ARE ZERO
 ALL CORRECTION TO DISP.    ARE ZERO
          THERE IS ZERO FORCE     EVERYWHERE

 AVERAGE HEAT FLUX                  1.319E-02   TIME AVG. HEAT FLUX    40.7    
 LARGEST RESIDUAL HEAT FLUX        -3.691E-11   AT NODE      41815   DOF 11
   INSTANCE: SH115                                                                           
 LARGEST INCREMENT OF TEMP.         7.675E-04   AT NODE        642   DOF 11
   INSTANCE: SH115                                                                           
 LARGEST CORRECTION TO TEMP.       -1.713E-03   AT NODE        637   DOF 11
   INSTANCE: SH115                                                                           
          THE HEAT FLUX EQUILIBRIUM RESPONSE WAS LINEAR IN THIS INCREMENT

 ITERATION SUMMARY FOR THE INCREMENT:   1 TOTAL ITERATIONS, OF WHICH
   0 ARE SEVERE DISCONTINUITY ITERATIONS AND  1 ARE EQUILIBRIUM ITERATIONS.

 TIME INCREMENT COMPLETED   720.    ,  FRACTION OF STEP COMPLETED  0.900    
 STEP TIME COMPLETED       6.480E+03,  TOTAL TIME COMPLETED        6.480E+03


  INCREMENT    10 STARTS. ATTEMPT NUMBER  1, TIME INCREMENT   720.    
 
	UNSYMMETRIC NEW DIRECT SPARSE SOLVER RUNNING ON
 	1 HOST x 1 MPI RANK PER HOST x 8 THREADS PER RANK
        NUMBER OF EQUATIONS:  215790
        NUMBER OF RHS:        1
        NUMBER OF FLOPS:      3.804e+11
        SOLVER ELAPSED TIME:  2.1s

               CONVERGENCE CHECKS FOR EQUILIBRIUM ITERATION     1


 AVERAGE FORCE                       0.00       TIME AVG. FORCE       1.000E-02
 ALL FORCE     RESIDUALS ARE ZERO
 ALL DISP.    INCREMENTS ARE ZERO
 ALL CORRECTION TO DISP.    ARE ZERO
          THERE IS ZERO FORCE     EVERYWHERE

 AVERAGE HEAT FLUX                  3.991E-03   TIME AVG. HEAT FLUX    36.6    
 LARGEST RESIDUAL HEAT FLUX        -3.760E-11   AT NODE      43061   DOF 11
   INSTANCE: SH115                                                                           
 LARGEST INCREMENT OF TEMP.         2.394E-04   AT NODE        642   DOF 11
   INSTANCE: SH115                                                                           
 LARGEST CORRECTION TO TEMP.       -5.280E-04   AT NODE        642   DOF 11
   INSTANCE: SH115                                                                           
          THE HEAT FLUX EQUILIBRIUM RESPONSE WAS LINEAR IN THIS INCREMENT

 ITERATION SUMMARY FOR THE INCREMENT:   1 TOTAL ITERATIONS, OF WHICH
   0 ARE SEVERE DISCONTINUITY ITERATIONS AND  1 ARE EQUILIBRIUM ITERATIONS.

 TIME INCREMENT COMPLETED   720.    ,  FRACTION OF STEP COMPLETED   1.00    
 STEP TIME COMPLETED       7.200E+03,  TOTAL TIME COMPLETED        7.200E+03
1

   Abaqus 2023.HF4                                  Date 22-Sep-2024   Time 21:38:11
   For use by AALTO UNIVERSITY under license from Dassault Systemes or its subsidiary.

                                                                                 
                                                                                 
 STEP    2     INCREMENT     1     STEP TIME    0.00    


                        S T E P       2     C O U P L E D - T E M P E R A T U R E - D I S P L A C E M E N T   A N A L Y S I S


                                                                                          

     AUTOMATIC TIME CONTROL WITH -
          A SUGGESTED INITIAL TIME INCREMENT OF                 10.6    
          AND A TOTAL TIME PERIOD OF                           1.062E+03
          THE MINIMUM TIME INCREMENT ALLOWED IS                1.000E-07
          THE MAXIMUM TIME INCREMENT ALLOWED IS                 10.6    

          CREEP AND SWELLING EFFECTS ARE OMITTED IN THIS STEP

     THE SIZE OF THE TIME INCREMENT IS CONTROLLED BY -
          THE TEMPERATURE CHANGE PER INCREMENT NOT EXCEEDING           1.000E+03
          THE RATE DEPENDENCY WILL BE CONSIDERED IN THIS STEP

          CREEP AND SWELLING EFFECTS WILL BE IGNORED.

 CONVERGENCE TOLERANCE PARAMETERS FOR FORCE    
     CRITERION FOR RESIDUAL FORCE     FOR A NONLINEAR PROBLEM          5.000E-03
     CRITERION FOR DISP.    CORRECTION IN A NONLINEAR PROBLEM          1.000E-02
     INIT. VALUE OF TIME AVG. FORCE     IS TIME AVG. FORCE     IN PREVIOUS STEP
     AVERAGE FORCE     IS TIME AVERAGE FORCE    
     ALTERNATE CRIT. FOR RESIDUAL FORCE     FOR A NONLINEAR PROBLEM    2.000E-02
     CRITERION FOR ZERO FORCE     RELATIVE TO TIME AVRG. FORCE         1.000E-05
     CRITERION FOR RESIDUAL FORCE     WHEN THERE IS ZERO FLUX          1.000E-05
     CRITERION FOR DISP.    CORRECTION WHEN THERE IS ZERO FLUX         1.000E-03
     CRITERION FOR RESIDUAL FORCE     FOR A LINEAR INCREMENT           1.000E-08
     FIELD CONVERSION RATIO                                             1.00    
     CRITERION FOR ZERO FORCE     REL. TO TIME AVRG. MAX. FORCE        1.000E-05
     CRITERION FOR ZERO DISP.    RELATIVE TO CHARACTERISTIC LENGTH     1.000E-08

 CONVERGENCE TOLERANCE PARAMETERS FOR HEAT FLUX
     CRITERION FOR RESIDUAL HEAT FLUX FOR A NONLINEAR PROBLEM          5.000E-03
     CRITERION FOR TEMP.    CORRECTION IN A NONLINEAR PROBLEM          1.000E-02
     INIT. VALUE OF TIME AVG. HEAT FLUX IS TIME AVG. HEAT FLUX IN PREVIOUS STEP
     AVERAGE HEAT FLUX IS TIME AVERAGE HEAT FLUX
     ALTERNATE CRIT. FOR RESIDUAL HEAT FLUX FOR A NONLINEAR PROBLEM    2.000E-02
     CRITERION FOR ZERO HEAT FLUX RELATIVE TO TIME AVRG. HEAT FLUX     1.000E-05
     CRITERION FOR RESIDUAL HEAT FLUX WHEN THERE IS ZERO FLUX          1.000E-05
     CRITERION FOR TEMP.    CORRECTION WHEN THERE IS ZERO FLUX         1.000E-03
     CRITERION FOR RESIDUAL HEAT FLUX FOR A LINEAR INCREMENT           1.000E-08
     FIELD CONVERSION RATIO                                             1.00    
     CRITERION FOR ZERO HEAT FLUX REL. TO TIME AVRG. MAX. HEAT FLUX    1.000E-05

     VOLUMETRIC STRAIN COMPATIBILITY TOLERANCE FOR HYBRID SOLIDS       1.000E-05
     AXIAL STRAIN COMPATIBILITY TOLERANCE FOR HYBRID BEAMS             1.000E-05
     TRANS. SHEAR STRAIN COMPATIBILITY TOLERANCE FOR HYBRID BEAMS      1.000E-05
     SOFT CONTACT CONSTRAINT COMPATIBILITY TOLERANCE FOR P>P0          5.000E-03
     SOFT CONTACT CONSTRAINT COMPATIBILITY TOLERANCE FOR P=0.0         0.100    
     CONTACT FORCE ERROR TOLERANCE FOR CONVERT SDI=YES                 1.00    
     DISPLACEMENT COMPATIBILITY TOLERANCE FOR DCOUP ELEMENTS           1.000E-05
     ROTATION COMPATIBILITY TOLERANCE FOR DCOUP ELEMENTS               1.000E-05

 EQUILIBRIUM WILL BE CHECKED FOR SEVERE DISCONTINUITY ITERATIONS

 TIME INCREMENTATION CONTROL PARAMETERS:
     FIRST EQUILIBRIUM ITERATION FOR CONSECUTIVE DIVERGENCE CHECK              4
     EQUILIBRIUM ITERATION AT WHICH LOG. CONVERGENCE RATE CHECK BEGINS         8
     EQUILIBRIUM ITERATION AFTER WHICH ALTERNATE RESIDUAL IS USED              9
     MAXIMUM EQUILIBRIUM ITERATIONS ALLOWED                                   16
     EQUILIBRIUM ITERATION COUNT FOR CUT-BACK IN NEXT INCREMENT               10
     MAXIMUM EQUILIB. ITERS IN TWO INCREMENTS FOR TIME INCREMENT INCREASE      4
     MAXIMUM ITERATIONS FOR SEVERE DISCONTINUITIES                            50
     MAXIMUM ATTEMPTS ALLOWED IN AN INCREMENT                                  5
     MAXIMUM DISCON. ITERS IN TWO INCREMENTS FOR TIME INCREMENT INCREASE      50
     MAXIMUM CONTACT AUGMENTATIONS FOR *SURFACE BEHAVIOR,AUGMENTED LAGRANGE   50
     CONSECUTIVE INCS MEETING TIME INTEG. TOL. FOR TIME INC. INCREASE          3
     CUT-BACK FACTOR AFTER DIVERGENCE                                 0.2500    
     CUT-BACK FACTOR FOR TOO SLOW CONVERGENCE                         0.5000    
     CUT-BACK FACTOR AFTER TOO MANY EQUILIBRIUM ITERATIONS            0.7500    
     CUT-BACK FACTOR AFTER TOO MANY SEVERE DISCONTINUITY ITERATIONS   0.2500    
     CUT-BACK FACTOR AFTER PROBLEMS IN ELEMENT ASSEMBLY               0.2500    
     INCREASE FACTOR AFTER TWO INCREMENTS THAT CONVERGE QUICKLY        1.500    
     MAX. TIME INCREMENT INCREASE FACTOR ALLOWED                       1.500    
     MAX. TIME INCREMENT INCREASE FACTOR ALLOWED (DYNAMICS)            1.250    
     MAX. TIME INCREMENT INCREASE FACTOR ALLOWED (DIFFUSION)           2.000    
     MINIMUM TIME INCREMENT RATIO FOR EXTRAPOLATION TO OCCUR          0.1000    
     CUT-BACK FACTOR WHEN TIME INTEGRATION ACCURACY TOL. EXCEEDED     0.8500    
     MAX. RATIO OF TIME INTEG. MEASURE TO TOL. FOR TIME INC. INCREASE 0.7500    
     INCREASE FACTOR FOR TIME INCREMENT WHEN POSSIBLE                 0.8000    
     MIN. TIME INC. INCREASE FACTOR IN LINEAR TRANSIENT PROBLEMS      0.9500    
     MAX. RATIO OF TIME INCREMENT TO STABILITY LIMIT                   1.000    
     FRACTION OF STABILITY LIMIT FOR NEW TIME INCREMENT               0.9500    
     TIME INCREMENT INCREASE FACTOR BEFORE A TIME POINT                1.000    
     GLOBAL STABILIZATION CONTROL IS NOT USED

          PRINT OF INCREMENT NUMBER, TIME, ETC., EVERY    1  INCREMENTS

     THE MAXIMUM NUMBER OF INCREMENTS IN THIS STEP IS                 1000000

          LARGE DISPLACEMENT THEORY WILL BE USED

          UNSYMMETRIC MATRIX STORAGE AND SOLUTION WILL BE USED

     LINEAR EXTRAPOLATION WILL BE USED

     CHARACTERISTIC ELEMENT LENGTH     2.261E-04

     DETAILS REGARDING ACTUAL SOLUTION WAVEFRONT REQUESTED

     DETAILED OUTPUT OF DIAGNOSTICS TO DATABASE REQUESTED

     PRINT OF INCREMENT NUMBER, TIME, ETC., TO THE MESSAGE FILE EVERY     1  INCREMENTS

     ELEMENT OPERATIONS WILL BE CARRIED OUT IN PARALLEL USING   8 THREADS ON 1 DOMAIN

     COLLECTING STEP CONSTRAINT INFORMATION FOR OVERCONSTRAINT CHECKS


  INCREMENT     1 STARTS. ATTEMPT NUMBER  1, TIME INCREMENT   10.6    
 
     INITIAL ELEMENT LOAD BALANCE
            DOMAIN    1     THREAD    NUMBER OF ELEMENTS
                              1            8504
                              2            8688
                              3            8536
                              4            8256
                              5            8416
                              6            8552
                              7            8538
                              8            8784
 
	UNSYMMETRIC NEW DIRECT SPARSE SOLVER RUNNING ON
 	1 HOST x 1 MPI RANK PER HOST x 8 THREADS PER RANK
        NUMBER OF EQUATIONS:  215790
        NUMBER OF RHS:        1
        NUMBER OF FLOPS:      3.804e+11
        SOLVER ELAPSED TIME:  2.0s

               CONVERGENCE CHECKS FOR EQUILIBRIUM ITERATION     1


 AVERAGE FORCE                      5.019E-02   TIME AVG. FORCE       5.019E-02
 LARGEST SCALED RESIDUAL FORCE      3.176E-11   AT NODE      40385   DOF  2
   INSTANCE: SH115                                                                           
  CORRESPONDING RESIDUAL FORCE      3.176E-11
 LARGEST INCREMENT OF DISP.         2.656E-05   AT NODE         11   DOF  2
   INSTANCE: SH115                                                                           
 LARGEST CORRECTION TO DISP.        2.656E-05   AT NODE         11   DOF  2
   INSTANCE: SH115                                                                           
          THE FORCE     EQUILIBRIUM RESPONSE WAS LINEAR IN THIS INCREMENT

 AVERAGE HEAT FLUX                  3.860E-03   TIME AVG. HEAT FLUX   3.860E-03
 LARGEST RESIDUAL HEAT FLUX        -2.639E-11   AT NODE      16369   DOF 11
   INSTANCE: SH115                                                                           
 LARGEST INCREMENT OF TEMP.         3.420E-06   AT NODE        642   DOF 11
   INSTANCE: SH115                                                                           
 LARGEST CORRECTION TO TEMP.        3.420E-06   AT NODE        642   DOF 11
   INSTANCE: SH115                                                                           
          THE HEAT FLUX EQUILIBRIUM RESPONSE WAS LINEAR IN THIS INCREMENT

 MAXIMUM NON-PRESCRIBED INCREMENT IN TEMPERATURE IS   3.420E-06

 ITERATION SUMMARY FOR THE INCREMENT:   1 TOTAL ITERATIONS, OF WHICH
   0 ARE SEVERE DISCONTINUITY ITERATIONS AND  1 ARE EQUILIBRIUM ITERATIONS.

 TIME INCREMENT COMPLETED   10.6    ,  FRACTION OF STEP COMPLETED  1.000E-02
 STEP TIME COMPLETED        10.6    ,  TOTAL TIME COMPLETED        7.211E+03


  INCREMENT     2 STARTS. ATTEMPT NUMBER  1, TIME INCREMENT   10.6    
 
	UNSYMMETRIC NEW DIRECT SPARSE SOLVER RUNNING ON
 	1 HOST x 1 MPI RANK PER HOST x 8 THREADS PER RANK
        NUMBER OF EQUATIONS:  215790
        NUMBER OF RHS:        1
        NUMBER OF FLOPS:      3.804e+11
        SOLVER ELAPSED TIME:  2.0s

               CONVERGENCE CHECKS FOR EQUILIBRIUM ITERATION     1


 AVERAGE FORCE                      0.204       TIME AVG. FORCE       0.127    
 LARGEST SCALED RESIDUAL FORCE      6.839E-12   AT NODE      42324   DOF  2
   INSTANCE: SH115                                                                           
  CORRESPONDING RESIDUAL FORCE      6.839E-12
 LARGEST INCREMENT OF DISP.         2.656E-05   AT NODE         11   DOF  2
   INSTANCE: SH115                                                                           
 LARGEST CORRECTION TO DISP.        2.809E-16   AT NODE        487   DOF  1
   INSTANCE: SH115                                                                           
          THE FORCE     EQUILIBRIUM RESPONSE WAS LINEAR IN THIS INCREMENT

 AVERAGE HEAT FLUX                  0.334       TIME AVG. HEAT FLUX   0.169    
 LARGEST RESIDUAL HEAT FLUX        -5.084E-04   AT NODE       6555   DOF 12
   INSTANCE: SH115                                                                           
 LARGEST INCREMENT OF TEMP.        -5.733E-02   AT NODE      27463   DOF 11
   INSTANCE: SH115                                                                           
 LARGEST CORRECTION TO TEMP.       -5.733E-02   AT NODE      27463   DOF 11
   INSTANCE: SH115                                                                           
 ESTIMATE OF TEMP.    CORRECTION    4.802E-07
 HEAT FLUX EQUILIB. ACCEPTED BASED ON SMALL RESIDUAL AND ESTIMATED CORRECTION

 MAXIMUM NON-PRESCRIBED INCREMENT IN TEMPERATURE IS  -5.733E-02
          TIME INCREMENT MAY NOW INCREASE TO     10.6    

 ITERATION SUMMARY FOR THE INCREMENT:   1 TOTAL ITERATIONS, OF WHICH
   0 ARE SEVERE DISCONTINUITY ITERATIONS AND  1 ARE EQUILIBRIUM ITERATIONS.

 TIME INCREMENT COMPLETED   10.6    ,  FRACTION OF STEP COMPLETED  2.000E-02
 STEP TIME COMPLETED        21.2    ,  TOTAL TIME COMPLETED        7.221E+03


  INCREMENT     3 STARTS. ATTEMPT NUMBER  1, TIME INCREMENT   10.6    
 
	UNSYMMETRIC NEW DIRECT SPARSE SOLVER RUNNING ON
 	1 HOST x 1 MPI RANK PER HOST x 8 THREADS PER RANK
        NUMBER OF EQUATIONS:  215790
        NUMBER OF RHS:        1
        NUMBER OF FLOPS:      3.804e+11
        SOLVER ELAPSED TIME:  2.0s

               CONVERGENCE CHECKS FOR EQUILIBRIUM ITERATION     1


 AVERAGE FORCE                      0.305       TIME AVG. FORCE       0.186    
 LARGEST SCALED RESIDUAL FORCE     -2.382E-03   AT NODE      11001   DOF  1
   INSTANCE: SH115                                                                           
  CORRESPONDING RESIDUAL FORCE     -2.382E-03
 LARGEST INCREMENT OF DISP.         2.656E-05   AT NODE         11   DOF  2
   INSTANCE: SH115                                                                           
 LARGEST CORRECTION TO DISP.       -1.783E-08   AT NODE        934   DOF  3
   INSTANCE: SH115                                                                           
          FORCE     EQUILIBRIUM NOT ACHIEVED WITHIN TOLERANCE.

 AVERAGE HEAT FLUX                  0.693       TIME AVG. HEAT FLUX   0.343    
 LARGEST RESIDUAL HEAT FLUX        -1.093E-03   AT NODE      26122   DOF 12
   INSTANCE: SH115                                                                           
 LARGEST INCREMENT OF TEMP.        -7.794E-02   AT NODE      27463   DOF 11
   INSTANCE: SH115                                                                           
 LARGEST CORRECTION TO TEMP.       -2.263E-02   AT NODE       6555   DOF 11
   INSTANCE: SH115                                                                           
 ESTIMATE OF TEMP.    CORRECTION    8.941E-07
 HEAT FLUX EQUILIB. ACCEPTED BASED ON SMALL RESIDUAL AND ESTIMATED CORRECTION
 
	UNSYMMETRIC NEW DIRECT SPARSE SOLVER RUNNING ON
 	1 HOST x 1 MPI RANK PER HOST x 8 THREADS PER RANK
        NUMBER OF EQUATIONS:  215790
        NUMBER OF RHS:        1
        NUMBER OF FLOPS:      3.804e+11
        SOLVER ELAPSED TIME:  2.0s

               CONVERGENCE CHECKS FOR EQUILIBRIUM ITERATION     2


 AVERAGE FORCE                      0.305       TIME AVG. FORCE       0.186    
 LARGEST SCALED RESIDUAL FORCE     -2.267E-08   AT NODE      11001   DOF  2
   INSTANCE: SH115                                                                           
  CORRESPONDING RESIDUAL FORCE     -2.267E-08
 LARGEST INCREMENT OF DISP.         2.656E-05   AT NODE         11   DOF  2
   INSTANCE: SH115                                                                           
 LARGEST CORRECTION TO DISP.       -1.174E-10   AT NODE      11000   DOF  2
   INSTANCE: SH115                                                                           
          THE FORCE     EQUILIBRIUM EQUATIONS HAVE CONVERGED

 AVERAGE HEAT FLUX                  0.693       TIME AVG. HEAT FLUX   0.343    
 LARGEST RESIDUAL HEAT FLUX         1.720E-08   AT NODE      11004   DOF 12
   INSTANCE: SH115                                                                           
 LARGEST INCREMENT OF TEMP.        -7.794E-02   AT NODE      27463   DOF 11
   INSTANCE: SH115                                                                           
 LARGEST CORRECTION TO TEMP.       -3.094E-07   AT NODE        774   DOF 12
   INSTANCE: SH115                                                                           
          THE HEAT FLUX EQUILIBRIUM EQUATIONS HAVE CONVERGED

 MAXIMUM NON-PRESCRIBED INCREMENT IN TEMPERATURE IS  -7.794E-02

 ITERATION SUMMARY FOR THE INCREMENT:   2 TOTAL ITERATIONS, OF WHICH
   0 ARE SEVERE DISCONTINUITY ITERATIONS AND  2 ARE EQUILIBRIUM ITERATIONS.

 TIME INCREMENT COMPLETED   10.6    ,  FRACTION OF STEP COMPLETED  3.000E-02
 STEP TIME COMPLETED        31.9    ,  TOTAL TIME COMPLETED        7.232E+03


  INCREMENT     4 STARTS. ATTEMPT NUMBER  1, TIME INCREMENT   10.6    
 
	UNSYMMETRIC NEW DIRECT SPARSE SOLVER RUNNING ON
 	1 HOST x 1 MPI RANK PER HOST x 8 THREADS PER RANK
        NUMBER OF EQUATIONS:  215790
        NUMBER OF RHS:        1
        NUMBER OF FLOPS:      3.804e+11
        SOLVER ELAPSED TIME:  2.0s

               CONVERGENCE CHECKS FOR EQUILIBRIUM ITERATION     1


 AVERAGE FORCE                      0.407       TIME AVG. FORCE       0.241    
 LARGEST SCALED RESIDUAL FORCE     -0.187       AT NODE      27978   DOF  2
   INSTANCE: SH115                                                                           
  CORRESPONDING RESIDUAL FORCE     -0.187    
 LARGEST INCREMENT OF DISP.         2.656E-05   AT NODE         11   DOF  2
   INSTANCE: SH115                                                                           
 LARGEST CORRECTION TO DISP.        3.248E-07   AT NODE        877   DOF  2
   INSTANCE: SH115                                                                           
          FORCE     EQUILIBRIUM NOT ACHIEVED WITHIN TOLERANCE.

 AVERAGE HEAT FLUX                   1.07       TIME AVG. HEAT FLUX   0.526    
 LARGEST RESIDUAL HEAT FLUX        -1.550E-03   AT NODE       6555   DOF 12
   INSTANCE: SH115                                                                           
 LARGEST INCREMENT OF TEMP.        -8.962E-02   AT NODE       7618   DOF 11
   INSTANCE: SH115                                                                           
 LARGEST CORRECTION TO TEMP.       -1.737E-02   AT NODE      28005   DOF 11
   INSTANCE: SH115                                                                           
 ESTIMATE OF TEMP.    CORRECTION   -1.415E-06
 HEAT FLUX EQUILIB. ACCEPTED BASED ON SMALL RESIDUAL AND ESTIMATED CORRECTION
 
	UNSYMMETRIC NEW DIRECT SPARSE SOLVER RUNNING ON
 	1 HOST x 1 MPI RANK PER HOST x 8 THREADS PER RANK
        NUMBER OF EQUATIONS:  215790
        NUMBER OF RHS:        1
        NUMBER OF FLOPS:      3.804e+11
        SOLVER ELAPSED TIME:  2.0s

               CONVERGENCE CHECKS FOR EQUILIBRIUM ITERATION     2


 AVERAGE FORCE                      0.407       TIME AVG. FORCE       0.241    
 LARGEST SCALED RESIDUAL FORCE      8.562E-03   AT NODE      29319   DOF  2
   INSTANCE: SH115                                                                           
  CORRESPONDING RESIDUAL FORCE      8.562E-03
 LARGEST INCREMENT OF DISP.         2.656E-05   AT NODE         11   DOF  2
   INSTANCE: SH115                                                                           
 LARGEST CORRECTION TO DISP.        2.225E-08   AT NODE        772   DOF  2
   INSTANCE: SH115                                                                           
          FORCE     EQUILIBRIUM NOT ACHIEVED WITHIN TOLERANCE.

 AVERAGE HEAT FLUX                   1.07       TIME AVG. HEAT FLUX   0.526    
 LARGEST RESIDUAL HEAT FLUX         5.534E-05   AT NODE      26096   DOF 12
   INSTANCE: SH115                                                                           
 LARGEST INCREMENT OF TEMP.        -8.962E-02   AT NODE       7618   DOF 11
   INSTANCE: SH115                                                                           
 LARGEST CORRECTION TO TEMP.       -2.946E-07   AT NODE       1229   DOF 12
   INSTANCE: SH115                                                                           
          THE HEAT FLUX EQUILIBRIUM EQUATIONS HAVE CONVERGED
 
	UNSYMMETRIC NEW DIRECT SPARSE SOLVER RUNNING ON
 	1 HOST x 1 MPI RANK PER HOST x 8 THREADS PER RANK
        NUMBER OF EQUATIONS:  215790
        NUMBER OF RHS:        1
        NUMBER OF FLOPS:      3.804e+11
        SOLVER ELAPSED TIME:  2.0s

               CONVERGENCE CHECKS FOR EQUILIBRIUM ITERATION     3


 AVERAGE FORCE                      0.407       TIME AVG. FORCE       0.241    
 LARGEST SCALED RESIDUAL FORCE     -9.609E-05   AT NODE      11050   DOF  2
   INSTANCE: SH115                                                                           
  CORRESPONDING RESIDUAL FORCE     -9.609E-05
 LARGEST INCREMENT OF DISP.         2.656E-05   AT NODE         11   DOF  2
   INSTANCE: SH115                                                                           
 LARGEST CORRECTION TO DISP.        4.886E-10   AT NODE       7591   DOF  2
   INSTANCE: SH115                                                                           
          THE FORCE     EQUILIBRIUM EQUATIONS HAVE CONVERGED

 AVERAGE HEAT FLUX                   1.07       TIME AVG. HEAT FLUX   0.526    
 LARGEST RESIDUAL HEAT FLUX         8.212E-07   AT NODE      29320   DOF 12
   INSTANCE: SH115                                                                           
 LARGEST INCREMENT OF TEMP.        -8.962E-02   AT NODE       7618   DOF 11
   INSTANCE: SH115                                                                           
 LARGEST CORRECTION TO TEMP.        8.480E-09   AT NODE      11266   DOF 12
   INSTANCE: SH115                                                                           
          THE HEAT FLUX EQUILIBRIUM EQUATIONS HAVE CONVERGED

 MAXIMUM NON-PRESCRIBED INCREMENT IN TEMPERATURE IS  -8.962E-02

 ITERATION SUMMARY FOR THE INCREMENT:   3 TOTAL ITERATIONS, OF WHICH
   0 ARE SEVERE DISCONTINUITY ITERATIONS AND  3 ARE EQUILIBRIUM ITERATIONS.

 TIME INCREMENT COMPLETED   10.6    ,  FRACTION OF STEP COMPLETED  4.000E-02
 STEP TIME COMPLETED        42.5    ,  TOTAL TIME COMPLETED        7.242E+03


  INCREMENT     5 STARTS. ATTEMPT NUMBER  1, TIME INCREMENT   10.6    
 
	UNSYMMETRIC NEW DIRECT SPARSE SOLVER RUNNING ON
 	1 HOST x 1 MPI RANK PER HOST x 8 THREADS PER RANK
        NUMBER OF EQUATIONS:  215790
        NUMBER OF RHS:        1
        NUMBER OF FLOPS:      3.804e+11
        SOLVER ELAPSED TIME:  2.0s

               CONVERGENCE CHECKS FOR EQUILIBRIUM ITERATION     1


 AVERAGE FORCE                      0.506       TIME AVG. FORCE       0.294    
 LARGEST SCALED RESIDUAL FORCE      0.221       AT NODE       6553   DOF  3
   INSTANCE: SH115                                                                           
  CORRESPONDING RESIDUAL FORCE      0.221    
 LARGEST INCREMENT OF DISP.         2.656E-05   AT NODE         11   DOF  2
   INSTANCE: SH115                                                                           
 LARGEST CORRECTION TO DISP.        5.934E-07   AT NODE       1228   DOF  2
   INSTANCE: SH115                                                                           
          FORCE     EQUILIBRIUM NOT ACHIEVED WITHIN TOLERANCE.

 AVERAGE HEAT FLUX                   1.44       TIME AVG. HEAT FLUX   0.710    
 LARGEST RESIDUAL HEAT FLUX         3.998E-02   AT NODE      25553   DOF 12
   INSTANCE: SH115                                                                           
 LARGEST INCREMENT OF TEMP.         0.214       AT NODE      25553   DOF 11
   INSTANCE: SH115                                                                           
 LARGEST CORRECTION TO TEMP.        0.177       AT NODE        771   DOF 11
   INSTANCE: SH115                                                                           
          HEAT FLUX EQUILIBRIUM NOT ACHIEVED WITHIN TOLERANCE.
 
	UNSYMMETRIC NEW DIRECT SPARSE SOLVER RUNNING ON
 	1 HOST x 1 MPI RANK PER HOST x 8 THREADS PER RANK
        NUMBER OF EQUATIONS:  215790
        NUMBER OF RHS:        1
        NUMBER OF FLOPS:      3.804e+11
        SOLVER ELAPSED TIME:  2.0s

               CONVERGENCE CHECKS FOR EQUILIBRIUM ITERATION     2


 AVERAGE FORCE                      0.506       TIME AVG. FORCE       0.294    
 LARGEST SCALED RESIDUAL FORCE     -1.166E-02   AT NODE       6495   DOF  3
   INSTANCE: SH115                                                                           
  CORRESPONDING RESIDUAL FORCE     -1.166E-02
 LARGEST INCREMENT OF DISP.         2.656E-05   AT NODE         11   DOF  2
   INSTANCE: SH115                                                                           
 LARGEST CORRECTION TO DISP.        3.028E-08   AT NODE      11495   DOF  2
   INSTANCE: SH115                                                                           
          FORCE     EQUILIBRIUM NOT ACHIEVED WITHIN TOLERANCE.

 AVERAGE HEAT FLUX                   1.44       TIME AVG. HEAT FLUX   0.710    
 LARGEST RESIDUAL HEAT FLUX         1.177E-04   AT NODE      10721   DOF 12
   INSTANCE: SH115                                                                           
 LARGEST INCREMENT OF TEMP.         0.214       AT NODE      25553   DOF 11
   INSTANCE: SH115                                                                           
 LARGEST CORRECTION TO TEMP.        5.423E-06   AT NODE        772   DOF 12
   INSTANCE: SH115                                                                           
          THE HEAT FLUX EQUILIBRIUM EQUATIONS HAVE CONVERGED
 
	UNSYMMETRIC NEW DIRECT SPARSE SOLVER RUNNING ON
 	1 HOST x 1 MPI RANK PER HOST x 8 THREADS PER RANK
        NUMBER OF EQUATIONS:  215790
        NUMBER OF RHS:        1
        NUMBER OF FLOPS:      3.804e+11
        SOLVER ELAPSED TIME:  2.2s

               CONVERGENCE CHECKS FOR EQUILIBRIUM ITERATION     3


 AVERAGE FORCE                      0.506       TIME AVG. FORCE       0.294    
 LARGEST SCALED RESIDUAL FORCE     -2.108E-04   AT NODE      29859   DOF  2
   INSTANCE: SH115                                                                           
  CORRESPONDING RESIDUAL FORCE     -2.108E-04
 LARGEST INCREMENT OF DISP.         2.656E-05   AT NODE         11   DOF  2
   INSTANCE: SH115                                                                           
 LARGEST CORRECTION TO DISP.        4.134E-10   AT NODE      27434   DOF  2
   INSTANCE: SH115                                                                           
          THE FORCE     EQUILIBRIUM EQUATIONS HAVE CONVERGED

 AVERAGE HEAT FLUX                   1.44       TIME AVG. HEAT FLUX   0.710    
 LARGEST RESIDUAL HEAT FLUX         1.630E-06   AT NODE      10722   DOF 12
   INSTANCE: SH115                                                                           
 LARGEST INCREMENT OF TEMP.         0.214       AT NODE      25553   DOF 11
   INSTANCE: SH115                                                                           
 LARGEST CORRECTION TO TEMP.        3.172E-08   AT NODE        773   DOF 12
   INSTANCE: SH115                                                                           
          THE HEAT FLUX EQUILIBRIUM EQUATIONS HAVE CONVERGED

 MAXIMUM NON-PRESCRIBED INCREMENT IN TEMPERATURE IS   0.214    

 ITERATION SUMMARY FOR THE INCREMENT:   3 TOTAL ITERATIONS, OF WHICH
   0 ARE SEVERE DISCONTINUITY ITERATIONS AND  3 ARE EQUILIBRIUM ITERATIONS.

 TIME INCREMENT COMPLETED   10.6    ,  FRACTION OF STEP COMPLETED  5.000E-02
 STEP TIME COMPLETED        53.1    ,  TOTAL TIME COMPLETED        7.253E+03


  INCREMENT     6 STARTS. ATTEMPT NUMBER  1, TIME INCREMENT   10.6    
 
	UNSYMMETRIC NEW DIRECT SPARSE SOLVER RUNNING ON
 	1 HOST x 1 MPI RANK PER HOST x 8 THREADS PER RANK
        NUMBER OF EQUATIONS:  215790
        NUMBER OF RHS:        1
        NUMBER OF FLOPS:      3.804e+11
        SOLVER ELAPSED TIME:  2.0s

               CONVERGENCE CHECKS FOR EQUILIBRIUM ITERATION     1


 AVERAGE FORCE                      0.601       TIME AVG. FORCE       0.345    
 LARGEST SCALED RESIDUAL FORCE     -0.194       AT NODE       2400   DOF  3
   INSTANCE: SH115                                                                           
  CORRESPONDING RESIDUAL FORCE     -0.194    
 LARGEST INCREMENT OF DISP.         2.656E-05   AT NODE         11   DOF  2
   INSTANCE: SH115                                                                           
 LARGEST CORRECTION TO DISP.        6.710E-07   AT NODE       1224   DOF  2
   INSTANCE: SH115                                                                           
          FORCE     EQUILIBRIUM NOT ACHIEVED WITHIN TOLERANCE.

 AVERAGE HEAT FLUX                   1.82       TIME AVG. HEAT FLUX   0.895    
 LARGEST RESIDUAL HEAT FLUX         5.467E-02   AT NODE      29318   DOF 12
   INSTANCE: SH115                                                                           
 LARGEST INCREMENT OF TEMP.         0.238       AT NODE      25552   DOF 11
   INSTANCE: SH115                                                                           
 LARGEST CORRECTION TO TEMP.       -0.156       AT NODE      31202   DOF 11
   INSTANCE: SH115                                                                           
          HEAT FLUX EQUILIBRIUM NOT ACHIEVED WITHIN TOLERANCE.
