1

   Abaqus 2023.HF4                                  Date 21-Oct-2024   Time 15:55:44
   For use by AALTO UNIVERSITY under license from Dassault Systemes or its subsidiary.

                                                                                 
                                                                                 
 STEP    1     INCREMENT     1     STEP TIME    0.00    


                        S T E P       1     S T A T I C   A N A L Y S I S


                                                                                          

     AUTOMATIC TIME CONTROL WITH -
          A SUGGESTED INITIAL TIME INCREMENT OF                 5.00    
          AND A TOTAL TIME PERIOD OF                           1.000E+03
          THE MINIMUM TIME INCREMENT ALLOWED IS                1.000E-07
          THE MAXIMUM TIME INCREMENT ALLOWED IS                 5.00    

     LINEAR EQUATION SOLVER TYPE         DIRECT SPARSE

 CONVERGENCE TOLERANCE PARAMETERS FOR FORCE    
     CRITERION FOR RESIDUAL FORCE     FOR A NONLINEAR PROBLEM          5.000E-03
     CRITERION FOR DISP.    CORRECTION IN A NONLINEAR PROBLEM          1.000E-02
     INITIAL VALUE OF TIME AVERAGE FORCE                               1.000E-02
     AVERAGE FORCE     IS TIME AVERAGE FORCE    
     ALTERNATE CRIT. FOR RESIDUAL FORCE     FOR A NONLINEAR PROBLEM    2.000E-02
     CRITERION FOR ZERO FORCE     RELATIVE TO TIME AVRG. FORCE         1.000E-05
     CRITERION FOR RESIDUAL FORCE     WHEN THERE IS ZERO FLUX          1.000E-05
     CRITERION FOR DISP.    CORRECTION WHEN THERE IS ZERO FLUX         1.000E-03
     CRITERION FOR RESIDUAL FORCE     FOR A LINEAR INCREMENT           1.000E-08
     FIELD CONVERSION RATIO                                             1.00    
     CRITERION FOR ZERO FORCE     REL. TO TIME AVRG. MAX. FORCE        1.000E-05
     CRITERION FOR ZERO DISP.    RELATIVE TO CHARACTERISTIC LENGTH     1.000E-08

     VOLUMETRIC STRAIN COMPATIBILITY TOLERANCE FOR HYBRID SOLIDS       1.000E-05
     AXIAL STRAIN COMPATIBILITY TOLERANCE FOR HYBRID BEAMS             1.000E-05
     TRANS. SHEAR STRAIN COMPATIBILITY TOLERANCE FOR HYBRID BEAMS      1.000E-05
     SOFT CONTACT CONSTRAINT COMPATIBILITY TOLERANCE FOR P>P0          5.000E-03
     SOFT CONTACT CONSTRAINT COMPATIBILITY TOLERANCE FOR P=0.0         0.100    
     CONTACT FORCE ERROR TOLERANCE FOR CONVERT SDI=YES                 1.00    
     DISPLACEMENT COMPATIBILITY TOLERANCE FOR DCOUP ELEMENTS           1.000E-05
     ROTATION COMPATIBILITY TOLERANCE FOR DCOUP ELEMENTS               1.000E-05

 EQUILIBRIUM WILL BE CHECKED FOR SEVERE DISCONTINUITY ITERATIONS

 TIME INCREMENTATION CONTROL PARAMETERS:
     FIRST EQUILIBRIUM ITERATION FOR CONSECUTIVE DIVERGENCE CHECK              4
     EQUILIBRIUM ITERATION AT WHICH LOG. CONVERGENCE RATE CHECK BEGINS         8
     EQUILIBRIUM ITERATION AFTER WHICH ALTERNATE RESIDUAL IS USED              9
     MAXIMUM EQUILIBRIUM ITERATIONS ALLOWED                                   16
     EQUILIBRIUM ITERATION COUNT FOR CUT-BACK IN NEXT INCREMENT               10
     MAXIMUM EQUILIB. ITERS IN TWO INCREMENTS FOR TIME INCREMENT INCREASE      4
     MAXIMUM ITERATIONS FOR SEVERE DISCONTINUITIES                            50
     MAXIMUM ATTEMPTS ALLOWED IN AN INCREMENT                                  5
     MAXIMUM DISCON. ITERS IN TWO INCREMENTS FOR TIME INCREMENT INCREASE      50
     MAXIMUM CONTACT AUGMENTATIONS FOR *SURFACE BEHAVIOR,AUGMENTED LAGRANGE   50
     CUT-BACK FACTOR AFTER DIVERGENCE                                 0.2500    
     CUT-BACK FACTOR FOR TOO SLOW CONVERGENCE                         0.5000    
     CUT-BACK FACTOR AFTER TOO MANY EQUILIBRIUM ITERATIONS            0.7500    
     CUT-BACK FACTOR AFTER TOO MANY SEVERE DISCONTINUITY ITERATIONS   0.2500    
     CUT-BACK FACTOR AFTER PROBLEMS IN ELEMENT ASSEMBLY               0.2500    
     INCREASE FACTOR AFTER TWO INCREMENTS THAT CONVERGE QUICKLY        1.500    
     MAX. TIME INCREMENT INCREASE FACTOR ALLOWED                       1.500    
     MAX. TIME INCREMENT INCREASE FACTOR ALLOWED (DYNAMICS)            1.250    
     MAX. TIME INCREMENT INCREASE FACTOR ALLOWED (DIFFUSION)           2.000    
     MINIMUM TIME INCREMENT RATIO FOR EXTRAPOLATION TO OCCUR          0.1000    
     MAX. RATIO OF TIME INCREMENT TO STABILITY LIMIT                   1.000    
     FRACTION OF STABILITY LIMIT FOR NEW TIME INCREMENT               0.9500    
     TIME INCREMENT INCREASE FACTOR BEFORE A TIME POINT                1.000    
     GLOBAL STABILIZATION CONTROL IS NOT USED

          PRINT OF INCREMENT NUMBER, TIME, ETC., EVERY    1  INCREMENTS

     THE MAXIMUM NUMBER OF INCREMENTS IN THIS STEP IS                 1000000

          LARGE DISPLACEMENT THEORY WILL BE USED

     LINEAR EXTRAPOLATION WILL BE USED

     CHARACTERISTIC ELEMENT LENGTH     1.912E-04

     DETAILS REGARDING ACTUAL SOLUTION WAVEFRONT REQUESTED

     DETAILED OUTPUT OF DIAGNOSTICS TO DATABASE REQUESTED

     PRINT OF INCREMENT NUMBER, TIME, ETC., TO THE MESSAGE FILE EVERY     1  INCREMENTS

     ELEMENT OPERATIONS WILL BE CARRIED OUT IN PARALLEL USING   8 THREADS ON 1 DOMAIN

     PARALLEL CONTACT TRACKING ENABLED


     COLLECTING MODEL CONSTRAINT INFORMATION FOR OVERCONSTRAINT CHECKS

     COLLECTING STEP CONSTRAINT INFORMATION FOR OVERCONSTRAINT CHECKS


  INCREMENT     1 STARTS. ATTEMPT NUMBER  1, TIME INCREMENT   5.00    
 
     INITIAL ELEMENT LOAD BALANCE
            DOMAIN    1     THREAD    NUMBER OF ELEMENTS
                              1            4520
                              2            4232
                              3            4216
                              4            4144
                              5            4568
                              6            4280
                              7            4496
                              8            4622

 ***WARNING: THERE ARE 7690 UNCONNECTED REGIONS IN THE MODEL.

 ***NOTE: SFM TYPE SURFACE ELEMENTS USED TO DEFINE CONTACT SURFACES NOT PART OF 
          A RIGID BODY MAY INCREASE THE NUMBER OR UNCONNECTED REGIONS REPORTED.
 
	SYMMETRIC NEW DIRECT SPARSE SOLVER RUNNING ON
 	1 HOST x 1 MPI RANK PER HOST x 8 THREADS PER RANK
        NUMBER OF EQUATIONS:  28822
        NUMBER OF RHS:        1
        NUMBER OF FLOPS:      1.080e+06
        SOLVER ELAPSED TIME:  11ms

               CONVERGENCE CHECKS FOR EQUILIBRIUM ITERATION     1


 AVERAGE FORCE                       0.00       TIME AVG. FORCE       1.000E-02
 ALL FORCE     RESIDUALS ARE ZERO
 LARGEST INCREMENT OF DISP.         8.950E-06   AT NODE         25   DOF  2
   INSTANCE: CHD2                                                                            
 LARGEST CORRECTION TO DISP.        8.950E-06   AT NODE         25   DOF  2
   INSTANCE: CHD2                                                                            
          THERE IS ZERO FORCE     EVERYWHERE

 ITERATION SUMMARY FOR THE INCREMENT:   1 TOTAL ITERATIONS, OF WHICH
   0 ARE SEVERE DISCONTINUITY ITERATIONS AND  1 ARE EQUILIBRIUM ITERATIONS.

 TIME INCREMENT COMPLETED   5.00    ,  FRACTION OF STEP COMPLETED  5.000E-03
 STEP TIME COMPLETED        5.00    ,  TOTAL TIME COMPLETED         5.00    


  INCREMENT     2 STARTS. ATTEMPT NUMBER  1, TIME INCREMENT   5.00    
 
	SYMMETRIC NEW DIRECT SPARSE SOLVER RUNNING ON
 	1 HOST x 1 MPI RANK PER HOST x 8 THREADS PER RANK
        NUMBER OF EQUATIONS:  28822
        NUMBER OF RHS:        1
        NUMBER OF FLOPS:      1.080e+06
        SOLVER ELAPSED TIME:  5ms

               CONVERGENCE CHECKS FOR EQUILIBRIUM ITERATION     1


 AVERAGE FORCE                       0.00       TIME AVG. FORCE       1.000E-02
 ALL FORCE     RESIDUALS ARE ZERO
 LARGEST INCREMENT OF DISP.         8.950E-06   AT NODE         25   DOF  2
   INSTANCE: CHD2                                                                            
 LARGEST CORRECTION TO DISP.         0.00       AT NODE         25   DOF  2
   INSTANCE: CHD2                                                                            
          THERE IS ZERO FORCE     EVERYWHERE

 ITERATION SUMMARY FOR THE INCREMENT:   1 TOTAL ITERATIONS, OF WHICH
   0 ARE SEVERE DISCONTINUITY ITERATIONS AND  1 ARE EQUILIBRIUM ITERATIONS.

 TIME INCREMENT COMPLETED   5.00    ,  FRACTION OF STEP COMPLETED  1.000E-02
 STEP TIME COMPLETED        10.0    ,  TOTAL TIME COMPLETED         10.0    


  INCREMENT     3 STARTS. ATTEMPT NUMBER  1, TIME INCREMENT   5.00    
 
	SYMMETRIC NEW DIRECT SPARSE SOLVER RUNNING ON
 	1 HOST x 1 MPI RANK PER HOST x 8 THREADS PER RANK
        NUMBER OF EQUATIONS:  28822
        NUMBER OF RHS:        1
        NUMBER OF FLOPS:      1.080e+06
        SOLVER ELAPSED TIME:  4ms

               CONVERGENCE CHECKS FOR EQUILIBRIUM ITERATION     1


 AVERAGE FORCE                       0.00       TIME AVG. FORCE       1.000E-02
 ALL FORCE     RESIDUALS ARE ZERO
 LARGEST INCREMENT OF DISP.         8.950E-06   AT NODE         25   DOF  2
   INSTANCE: CHD2                                                                            
 LARGEST CORRECTION TO DISP.        1.694E-21   AT NODE         25   DOF  2
   INSTANCE: CHD2                                                                            
          THERE IS ZERO FORCE     EVERYWHERE

 ITERATION SUMMARY FOR THE INCREMENT:   1 TOTAL ITERATIONS, OF WHICH
   0 ARE SEVERE DISCONTINUITY ITERATIONS AND  1 ARE EQUILIBRIUM ITERATIONS.

 TIME INCREMENT COMPLETED   5.00    ,  FRACTION OF STEP COMPLETED  1.500E-02
 STEP TIME COMPLETED        15.0    ,  TOTAL TIME COMPLETED         15.0    


  INCREMENT     4 STARTS. ATTEMPT NUMBER  1, TIME INCREMENT   5.00    
 
	SYMMETRIC NEW DIRECT SPARSE SOLVER RUNNING ON
 	1 HOST x 1 MPI RANK PER HOST x 8 THREADS PER RANK
        NUMBER OF EQUATIONS:  28822
        NUMBER OF RHS:        1
        NUMBER OF FLOPS:      1.080e+06
        SOLVER ELAPSED TIME:  4ms

               CONVERGENCE CHECKS FOR EQUILIBRIUM ITERATION     1


 AVERAGE FORCE                       0.00       TIME AVG. FORCE       1.000E-02
 ALL FORCE     RESIDUALS ARE ZERO
 LARGEST INCREMENT OF DISP.         8.950E-06   AT NODE         25   DOF  2
   INSTANCE: CHD2                                                                            
 LARGEST CORRECTION TO DISP.       -3.388E-21   AT NODE         25   DOF  2
   INSTANCE: CHD2                                                                            
          THERE IS ZERO FORCE     EVERYWHERE

 ITERATION SUMMARY FOR THE INCREMENT:   1 TOTAL ITERATIONS, OF WHICH
   0 ARE SEVERE DISCONTINUITY ITERATIONS AND  1 ARE EQUILIBRIUM ITERATIONS.

 TIME INCREMENT COMPLETED   5.00    ,  FRACTION OF STEP COMPLETED  2.000E-02
 STEP TIME COMPLETED        20.0    ,  TOTAL TIME COMPLETED         20.0    


  INCREMENT     5 STARTS. ATTEMPT NUMBER  1, TIME INCREMENT   5.00    
 
	SYMMETRIC NEW DIRECT SPARSE SOLVER RUNNING ON
 	1 HOST x 1 MPI RANK PER HOST x 8 THREADS PER RANK
        NUMBER OF EQUATIONS:  28822
        NUMBER OF RHS:        1
        NUMBER OF FLOPS:      1.080e+06
        SOLVER ELAPSED TIME:  4ms

               CONVERGENCE CHECKS FOR EQUILIBRIUM ITERATION     1


 AVERAGE FORCE                       0.00       TIME AVG. FORCE       1.000E-02
 ALL FORCE     RESIDUALS ARE ZERO
 LARGEST INCREMENT OF DISP.         8.950E-06   AT NODE         25   DOF  2
   INSTANCE: CHD2                                                                            
 LARGEST CORRECTION TO DISP.        1.016E-20   AT NODE         25   DOF  2
   INSTANCE: CHD2                                                                            
          THERE IS ZERO FORCE     EVERYWHERE

 ITERATION SUMMARY FOR THE INCREMENT:   1 TOTAL ITERATIONS, OF WHICH
   0 ARE SEVERE DISCONTINUITY ITERATIONS AND  1 ARE EQUILIBRIUM ITERATIONS.

 TIME INCREMENT COMPLETED   5.00    ,  FRACTION OF STEP COMPLETED  2.500E-02
 STEP TIME COMPLETED        25.0    ,  TOTAL TIME COMPLETED         25.0    


  INCREMENT     6 STARTS. ATTEMPT NUMBER  1, TIME INCREMENT   5.00    
 
	SYMMETRIC NEW DIRECT SPARSE SOLVER RUNNING ON
 	1 HOST x 1 MPI RANK PER HOST x 8 THREADS PER RANK
        NUMBER OF EQUATIONS:  28822
        NUMBER OF RHS:        1
        NUMBER OF FLOPS:      1.080e+06
        SOLVER ELAPSED TIME:  4ms

               CONVERGENCE CHECKS FOR EQUILIBRIUM ITERATION     1


 AVERAGE FORCE                       0.00       TIME AVG. FORCE       1.000E-02
 ALL FORCE     RESIDUALS ARE ZERO
 LARGEST INCREMENT OF DISP.         8.950E-06   AT NODE         25   DOF  2
   INSTANCE: CHD2                                                                            
 LARGEST CORRECTION TO DISP.       -1.355E-20   AT NODE         25   DOF  2
   INSTANCE: CHD2                                                                            
          THERE IS ZERO FORCE     EVERYWHERE

 ITERATION SUMMARY FOR THE INCREMENT:   1 TOTAL ITERATIONS, OF WHICH
   0 ARE SEVERE DISCONTINUITY ITERATIONS AND  1 ARE EQUILIBRIUM ITERATIONS.

 TIME INCREMENT COMPLETED   5.00    ,  FRACTION OF STEP COMPLETED  3.000E-02
 STEP TIME COMPLETED        30.0    ,  TOTAL TIME COMPLETED         30.0    


  INCREMENT     7 STARTS. ATTEMPT NUMBER  1, TIME INCREMENT   5.00    
 
	SYMMETRIC NEW DIRECT SPARSE SOLVER RUNNING ON
 	1 HOST x 1 MPI RANK PER HOST x 8 THREADS PER RANK
        NUMBER OF EQUATIONS:  28822
        NUMBER OF RHS:        1
        NUMBER OF FLOPS:      1.080e+06
        SOLVER ELAPSED TIME:  4ms

               CONVERGENCE CHECKS FOR EQUILIBRIUM ITERATION     1


 AVERAGE FORCE                       0.00       TIME AVG. FORCE       1.000E-02
 ALL FORCE     RESIDUALS ARE ZERO
 LARGEST INCREMENT OF DISP.         8.950E-06   AT NODE         25   DOF  2
   INSTANCE: CHD2                                                                            
 LARGEST CORRECTION TO DISP.        1.355E-20   AT NODE         25   DOF  2
   INSTANCE: CHD2                                                                            
          THERE IS ZERO FORCE     EVERYWHERE

 ITERATION SUMMARY FOR THE INCREMENT:   1 TOTAL ITERATIONS, OF WHICH
   0 ARE SEVERE DISCONTINUITY ITERATIONS AND  1 ARE EQUILIBRIUM ITERATIONS.

 TIME INCREMENT COMPLETED   5.00    ,  FRACTION OF STEP COMPLETED  3.500E-02
 STEP TIME COMPLETED        35.0    ,  TOTAL TIME COMPLETED         35.0    


  INCREMENT     8 STARTS. ATTEMPT NUMBER  1, TIME INCREMENT   5.00    
 
	SYMMETRIC NEW DIRECT SPARSE SOLVER RUNNING ON
 	1 HOST x 1 MPI RANK PER HOST x 8 THREADS PER RANK
        NUMBER OF EQUATIONS:  28822
        NUMBER OF RHS:        1
        NUMBER OF FLOPS:      1.080e+06
        SOLVER ELAPSED TIME:  4ms

               CONVERGENCE CHECKS FOR EQUILIBRIUM ITERATION     1


 AVERAGE FORCE                       0.00       TIME AVG. FORCE       1.000E-02
 ALL FORCE     RESIDUALS ARE ZERO
 LARGEST INCREMENT OF DISP.         8.950E-06   AT NODE         25   DOF  2
   INSTANCE: CHD2                                                                            
 LARGEST CORRECTION TO DISP.       -2.033E-20   AT NODE         25   DOF  2
   INSTANCE: CHD2                                                                            
          THERE IS ZERO FORCE     EVERYWHERE

 ITERATION SUMMARY FOR THE INCREMENT:   1 TOTAL ITERATIONS, OF WHICH
   0 ARE SEVERE DISCONTINUITY ITERATIONS AND  1 ARE EQUILIBRIUM ITERATIONS.

 TIME INCREMENT COMPLETED   5.00    ,  FRACTION OF STEP COMPLETED  4.000E-02
 STEP TIME COMPLETED        40.0    ,  TOTAL TIME COMPLETED         40.0    


  INCREMENT     9 STARTS. ATTEMPT NUMBER  1, TIME INCREMENT   5.00    
 
	SYMMETRIC NEW DIRECT SPARSE SOLVER RUNNING ON
 	1 HOST x 1 MPI RANK PER HOST x 8 THREADS PER RANK
        NUMBER OF EQUATIONS:  28822
        NUMBER OF RHS:        1
        NUMBER OF FLOPS:      1.080e+06
        SOLVER ELAPSED TIME:  4ms

               CONVERGENCE CHECKS FOR EQUILIBRIUM ITERATION     1


 AVERAGE FORCE                       0.00       TIME AVG. FORCE       1.000E-02
 ALL FORCE     RESIDUALS ARE ZERO
 LARGEST INCREMENT OF DISP.         8.950E-06   AT NODE         25   DOF  2
   INSTANCE: CHD2                                                                            
 LARGEST CORRECTION TO DISP.        1.355E-20   AT NODE         25   DOF  2
   INSTANCE: CHD2                                                                            
          THERE IS ZERO FORCE     EVERYWHERE

 ITERATION SUMMARY FOR THE INCREMENT:   1 TOTAL ITERATIONS, OF WHICH
   0 ARE SEVERE DISCONTINUITY ITERATIONS AND  1 ARE EQUILIBRIUM ITERATIONS.

 TIME INCREMENT COMPLETED   5.00    ,  FRACTION OF STEP COMPLETED  4.500E-02
 STEP TIME COMPLETED        45.0    ,  TOTAL TIME COMPLETED         45.0    


  INCREMENT    10 STARTS. ATTEMPT NUMBER  1, TIME INCREMENT   5.00    
 
	SYMMETRIC NEW DIRECT SPARSE SOLVER RUNNING ON
 	1 HOST x 1 MPI RANK PER HOST x 8 THREADS PER RANK
        NUMBER OF EQUATIONS:  28822
        NUMBER OF RHS:        1
        NUMBER OF FLOPS:      1.080e+06
        SOLVER ELAPSED TIME:  4ms

               CONVERGENCE CHECKS FOR EQUILIBRIUM ITERATION     1


 AVERAGE FORCE                       0.00       TIME AVG. FORCE       1.000E-02
 ALL FORCE     RESIDUALS ARE ZERO
 LARGEST INCREMENT OF DISP.         8.950E-06   AT NODE         25   DOF  2
   INSTANCE: CHD2                                                                            
 LARGEST CORRECTION TO DISP.        1.355E-20   AT NODE         25   DOF  2
   INSTANCE: CHD2                                                                            
          THERE IS ZERO FORCE     EVERYWHERE

 ITERATION SUMMARY FOR THE INCREMENT:   1 TOTAL ITERATIONS, OF WHICH
   0 ARE SEVERE DISCONTINUITY ITERATIONS AND  1 ARE EQUILIBRIUM ITERATIONS.

 TIME INCREMENT COMPLETED   5.00    ,  FRACTION OF STEP COMPLETED  5.000E-02
 STEP TIME COMPLETED        50.0    ,  TOTAL TIME COMPLETED         50.0    


  INCREMENT    11 STARTS. ATTEMPT NUMBER  1, TIME INCREMENT   5.00    
 
	SYMMETRIC NEW DIRECT SPARSE SOLVER RUNNING ON
 	1 HOST x 1 MPI RANK PER HOST x 8 THREADS PER RANK
        NUMBER OF EQUATIONS:  28822
        NUMBER OF RHS:        1
        NUMBER OF FLOPS:      1.080e+06
        SOLVER ELAPSED TIME:  4ms

               CONVERGENCE CHECKS FOR EQUILIBRIUM ITERATION     1


 AVERAGE FORCE                       0.00       TIME AVG. FORCE       1.000E-02
 ALL FORCE     RESIDUALS ARE ZERO
 LARGEST INCREMENT OF DISP.         8.950E-06   AT NODE         25   DOF  2
   INSTANCE: CHD2                                                                            
 LARGEST CORRECTION TO DISP.       -2.711E-20   AT NODE         25   DOF  2
   INSTANCE: CHD2                                                                            
          THERE IS ZERO FORCE     EVERYWHERE

 ITERATION SUMMARY FOR THE INCREMENT:   1 TOTAL ITERATIONS, OF WHICH
   0 ARE SEVERE DISCONTINUITY ITERATIONS AND  1 ARE EQUILIBRIUM ITERATIONS.

 TIME INCREMENT COMPLETED   5.00    ,  FRACTION OF STEP COMPLETED  5.500E-02
 STEP TIME COMPLETED        55.0    ,  TOTAL TIME COMPLETED         55.0    


  INCREMENT    12 STARTS. ATTEMPT NUMBER  1, TIME INCREMENT   5.00    
 
	SYMMETRIC NEW DIRECT SPARSE SOLVER RUNNING ON
 	1 HOST x 1 MPI RANK PER HOST x 8 THREADS PER RANK
        NUMBER OF EQUATIONS:  28822
        NUMBER OF RHS:        1
        NUMBER OF FLOPS:      1.080e+06
        SOLVER ELAPSED TIME:  4ms

               CONVERGENCE CHECKS FOR EQUILIBRIUM ITERATION     1


 AVERAGE FORCE                       0.00       TIME AVG. FORCE       1.000E-02
 ALL FORCE     RESIDUALS ARE ZERO
 LARGEST INCREMENT OF DISP.         8.950E-06   AT NODE         25   DOF  2
   INSTANCE: CHD2                                                                            
 LARGEST CORRECTION TO DISP.        1.355E-20   AT NODE         25   DOF  2
   INSTANCE: CHD2                                                                            
          THERE IS ZERO FORCE     EVERYWHERE

 ITERATION SUMMARY FOR THE INCREMENT:   1 TOTAL ITERATIONS, OF WHICH
   0 ARE SEVERE DISCONTINUITY ITERATIONS AND  1 ARE EQUILIBRIUM ITERATIONS.

 TIME INCREMENT COMPLETED   5.00    ,  FRACTION OF STEP COMPLETED  6.000E-02
 STEP TIME COMPLETED        60.0    ,  TOTAL TIME COMPLETED         60.0    


  INCREMENT    13 STARTS. ATTEMPT NUMBER  1, TIME INCREMENT   5.00    
 
	SYMMETRIC NEW DIRECT SPARSE SOLVER RUNNING ON
 	1 HOST x 1 MPI RANK PER HOST x 8 THREADS PER RANK
        NUMBER OF EQUATIONS:  28822
        NUMBER OF RHS:        1
        NUMBER OF FLOPS:      1.080e+06
        SOLVER ELAPSED TIME:  4ms

               CONVERGENCE CHECKS FOR EQUILIBRIUM ITERATION     1


 AVERAGE FORCE                       0.00       TIME AVG. FORCE       1.000E-02
 ALL FORCE     RESIDUALS ARE ZERO
 LARGEST INCREMENT OF DISP.         8.950E-06   AT NODE         25   DOF  2
   INSTANCE: CHD2                                                                            
 LARGEST CORRECTION TO DISP.         0.00       AT NODE         25   DOF  2
   INSTANCE: CHD2                                                                            
          THERE IS ZERO FORCE     EVERYWHERE

 ITERATION SUMMARY FOR THE INCREMENT:   1 TOTAL ITERATIONS, OF WHICH
   0 ARE SEVERE DISCONTINUITY ITERATIONS AND  1 ARE EQUILIBRIUM ITERATIONS.

 TIME INCREMENT COMPLETED   5.00    ,  FRACTION OF STEP COMPLETED  6.500E-02
 STEP TIME COMPLETED        65.0    ,  TOTAL TIME COMPLETED         65.0    


  INCREMENT    14 STARTS. ATTEMPT NUMBER  1, TIME INCREMENT   5.00    
 
	SYMMETRIC NEW DIRECT SPARSE SOLVER RUNNING ON
 	1 HOST x 1 MPI RANK PER HOST x 8 THREADS PER RANK
        NUMBER OF EQUATIONS:  28822
        NUMBER OF RHS:        1
        NUMBER OF FLOPS:      1.080e+06
        SOLVER ELAPSED TIME:  4ms

               CONVERGENCE CHECKS FOR EQUILIBRIUM ITERATION     1


 AVERAGE FORCE                       0.00       TIME AVG. FORCE       1.000E-02
 ALL FORCE     RESIDUALS ARE ZERO
 LARGEST INCREMENT OF DISP.         8.950E-06   AT NODE         25   DOF  2
   INSTANCE: CHD2                                                                            
 LARGEST CORRECTION TO DISP.        1.355E-20   AT NODE         25   DOF  2
   INSTANCE: CHD2                                                                            
          THERE IS ZERO FORCE     EVERYWHERE

 ITERATION SUMMARY FOR THE INCREMENT:   1 TOTAL ITERATIONS, OF WHICH
   0 ARE SEVERE DISCONTINUITY ITERATIONS AND  1 ARE EQUILIBRIUM ITERATIONS.

 TIME INCREMENT COMPLETED   5.00    ,  FRACTION OF STEP COMPLETED  7.000E-02
 STEP TIME COMPLETED        70.0    ,  TOTAL TIME COMPLETED         70.0    


  INCREMENT    15 STARTS. ATTEMPT NUMBER  1, TIME INCREMENT   5.00    
 
	SYMMETRIC NEW DIRECT SPARSE SOLVER RUNNING ON
 	1 HOST x 1 MPI RANK PER HOST x 8 THREADS PER RANK
        NUMBER OF EQUATIONS:  28822
        NUMBER OF RHS:        1
        NUMBER OF FLOPS:      1.080e+06
        SOLVER ELAPSED TIME:  4ms

               CONVERGENCE CHECKS FOR EQUILIBRIUM ITERATION     1


 AVERAGE FORCE                       0.00       TIME AVG. FORCE       1.000E-02
 ALL FORCE     RESIDUALS ARE ZERO
 LARGEST INCREMENT OF DISP.         8.950E-06   AT NODE         25   DOF  2
   INSTANCE: CHD2                                                                            
 LARGEST CORRECTION TO DISP.       -4.066E-20   AT NODE         25   DOF  2
   INSTANCE: CHD2                                                                            
          THERE IS ZERO FORCE     EVERYWHERE

 ITERATION SUMMARY FOR THE INCREMENT:   1 TOTAL ITERATIONS, OF WHICH
   0 ARE SEVERE DISCONTINUITY ITERATIONS AND  1 ARE EQUILIBRIUM ITERATIONS.

 TIME INCREMENT COMPLETED   5.00    ,  FRACTION OF STEP COMPLETED  7.500E-02
 STEP TIME COMPLETED        75.0    ,  TOTAL TIME COMPLETED         75.0    


  INCREMENT    16 STARTS. ATTEMPT NUMBER  1, TIME INCREMENT   5.00    
 
	SYMMETRIC NEW DIRECT SPARSE SOLVER RUNNING ON
 	1 HOST x 1 MPI RANK PER HOST x 8 THREADS PER RANK
        NUMBER OF EQUATIONS:  28822
        NUMBER OF RHS:        1
        NUMBER OF FLOPS:      1.080e+06
        SOLVER ELAPSED TIME:  4ms

               CONVERGENCE CHECKS FOR EQUILIBRIUM ITERATION     1


 AVERAGE FORCE                       0.00       TIME AVG. FORCE       1.000E-02
 ALL FORCE     RESIDUALS ARE ZERO
 LARGEST INCREMENT OF DISP.         8.950E-06   AT NODE         25   DOF  2
   INSTANCE: CHD2                                                                            
 LARGEST CORRECTION TO DISP.        2.711E-20   AT NODE         25   DOF  2
   INSTANCE: CHD2                                                                            
          THERE IS ZERO FORCE     EVERYWHERE

 ITERATION SUMMARY FOR THE INCREMENT:   1 TOTAL ITERATIONS, OF WHICH
   0 ARE SEVERE DISCONTINUITY ITERATIONS AND  1 ARE EQUILIBRIUM ITERATIONS.

 TIME INCREMENT COMPLETED   5.00    ,  FRACTION OF STEP COMPLETED  8.000E-02
 STEP TIME COMPLETED        80.0    ,  TOTAL TIME COMPLETED         80.0    


  INCREMENT    17 STARTS. ATTEMPT NUMBER  1, TIME INCREMENT   5.00    
 
	SYMMETRIC NEW DIRECT SPARSE SOLVER RUNNING ON
 	1 HOST x 1 MPI RANK PER HOST x 8 THREADS PER RANK
        NUMBER OF EQUATIONS:  28822
        NUMBER OF RHS:        1
        NUMBER OF FLOPS:      1.080e+06
        SOLVER ELAPSED TIME:  4ms

               CONVERGENCE CHECKS FOR EQUILIBRIUM ITERATION     1


 AVERAGE FORCE                       0.00       TIME AVG. FORCE       1.000E-02
 ALL FORCE     RESIDUALS ARE ZERO
 LARGEST INCREMENT OF DISP.         8.950E-06   AT NODE         25   DOF  2
   INSTANCE: CHD2                                                                            
 LARGEST CORRECTION TO DISP.        2.711E-20   AT NODE         25   DOF  2
   INSTANCE: CHD2                                                                            
          THERE IS ZERO FORCE     EVERYWHERE

 ITERATION SUMMARY FOR THE INCREMENT:   1 TOTAL ITERATIONS, OF WHICH
   0 ARE SEVERE DISCONTINUITY ITERATIONS AND  1 ARE EQUILIBRIUM ITERATIONS.

 TIME INCREMENT COMPLETED   5.00    ,  FRACTION OF STEP COMPLETED  8.500E-02
 STEP TIME COMPLETED        85.0    ,  TOTAL TIME COMPLETED         85.0    


  INCREMENT    18 STARTS. ATTEMPT NUMBER  1, TIME INCREMENT   5.00    
 
	SYMMETRIC NEW DIRECT SPARSE SOLVER RUNNING ON
 	1 HOST x 1 MPI RANK PER HOST x 8 THREADS PER RANK
        NUMBER OF EQUATIONS:  28822
        NUMBER OF RHS:        1
        NUMBER OF FLOPS:      1.080e+06
        SOLVER ELAPSED TIME:  4ms

               CONVERGENCE CHECKS FOR EQUILIBRIUM ITERATION     1


 AVERAGE FORCE                       0.00       TIME AVG. FORCE       1.000E-02
 ALL FORCE     RESIDUALS ARE ZERO
 LARGEST INCREMENT OF DISP.         8.950E-06   AT NODE         25   DOF  2
   INSTANCE: CHD2                                                                            
 LARGEST CORRECTION TO DISP.       -5.421E-20   AT NODE         25   DOF  2
   INSTANCE: CHD2                                                                            
          THERE IS ZERO FORCE     EVERYWHERE

 ITERATION SUMMARY FOR THE INCREMENT:   1 TOTAL ITERATIONS, OF WHICH
   0 ARE SEVERE DISCONTINUITY ITERATIONS AND  1 ARE EQUILIBRIUM ITERATIONS.

 TIME INCREMENT COMPLETED   5.00    ,  FRACTION OF STEP COMPLETED  9.000E-02
 STEP TIME COMPLETED        90.0    ,  TOTAL TIME COMPLETED         90.0    


  INCREMENT    19 STARTS. ATTEMPT NUMBER  1, TIME INCREMENT   5.00    
 
	SYMMETRIC NEW DIRECT SPARSE SOLVER RUNNING ON
 	1 HOST x 1 MPI RANK PER HOST x 8 THREADS PER RANK
        NUMBER OF EQUATIONS:  28822
        NUMBER OF RHS:        1
        NUMBER OF FLOPS:      1.080e+06
        SOLVER ELAPSED TIME:  4ms

               CONVERGENCE CHECKS FOR EQUILIBRIUM ITERATION     1


 AVERAGE FORCE                       0.00       TIME AVG. FORCE       1.000E-02
 ALL FORCE     RESIDUALS ARE ZERO
 LARGEST INCREMENT OF DISP.         8.950E-06   AT NODE         25   DOF  2
   INSTANCE: CHD2                                                                            
 LARGEST CORRECTION TO DISP.        2.711E-20   AT NODE         25   DOF  2
   INSTANCE: CHD2                                                                            
          THERE IS ZERO FORCE     EVERYWHERE

 ITERATION SUMMARY FOR THE INCREMENT:   1 TOTAL ITERATIONS, OF WHICH
   0 ARE SEVERE DISCONTINUITY ITERATIONS AND  1 ARE EQUILIBRIUM ITERATIONS.

 TIME INCREMENT COMPLETED   5.00    ,  FRACTION OF STEP COMPLETED  9.500E-02
 STEP TIME COMPLETED        95.0    ,  TOTAL TIME COMPLETED         95.0    


  INCREMENT    20 STARTS. ATTEMPT NUMBER  1, TIME INCREMENT   5.00    
 
	SYMMETRIC NEW DIRECT SPARSE SOLVER RUNNING ON
 	1 HOST x 1 MPI RANK PER HOST x 8 THREADS PER RANK
        NUMBER OF EQUATIONS:  28822
        NUMBER OF RHS:        1
        NUMBER OF FLOPS:      1.080e+06
        SOLVER ELAPSED TIME:  4ms

               CONVERGENCE CHECKS FOR EQUILIBRIUM ITERATION     1


 AVERAGE FORCE                       0.00       TIME AVG. FORCE       1.000E-02
 ALL FORCE     RESIDUALS ARE ZERO
 LARGEST INCREMENT OF DISP.         8.950E-06   AT NODE         25   DOF  2
   INSTANCE: CHD2                                                                            
 LARGEST CORRECTION TO DISP.        2.711E-20   AT NODE         25   DOF  2
   INSTANCE: CHD2                                                                            
          THERE IS ZERO FORCE     EVERYWHERE

 ITERATION SUMMARY FOR THE INCREMENT:   1 TOTAL ITERATIONS, OF WHICH
   0 ARE SEVERE DISCONTINUITY ITERATIONS AND  1 ARE EQUILIBRIUM ITERATIONS.

 TIME INCREMENT COMPLETED   5.00    ,  FRACTION OF STEP COMPLETED  0.100    
 STEP TIME COMPLETED        100.    ,  TOTAL TIME COMPLETED         100.    


  INCREMENT    21 STARTS. ATTEMPT NUMBER  1, TIME INCREMENT   5.00    
 
	SYMMETRIC NEW DIRECT SPARSE SOLVER RUNNING ON
 	1 HOST x 1 MPI RANK PER HOST x 8 THREADS PER RANK
        NUMBER OF EQUATIONS:  28822
        NUMBER OF RHS:        1
        NUMBER OF FLOPS:      1.080e+06
        SOLVER ELAPSED TIME:  4ms

               CONVERGENCE CHECKS FOR EQUILIBRIUM ITERATION     1


 AVERAGE FORCE                       0.00       TIME AVG. FORCE       1.000E-02
 ALL FORCE     RESIDUALS ARE ZERO
 LARGEST INCREMENT OF DISP.         8.950E-06   AT NODE         25   DOF  2
   INSTANCE: CHD2                                                                            
 LARGEST CORRECTION TO DISP.       -5.421E-20   AT NODE         25   DOF  2
   INSTANCE: CHD2                                                                            
          THERE IS ZERO FORCE     EVERYWHERE

 ITERATION SUMMARY FOR THE INCREMENT:   1 TOTAL ITERATIONS, OF WHICH
   0 ARE SEVERE DISCONTINUITY ITERATIONS AND  1 ARE EQUILIBRIUM ITERATIONS.

 TIME INCREMENT COMPLETED   5.00    ,  FRACTION OF STEP COMPLETED  0.105    
 STEP TIME COMPLETED        105.    ,  TOTAL TIME COMPLETED         105.    


  INCREMENT    22 STARTS. ATTEMPT NUMBER  1, TIME INCREMENT   5.00    
 
	SYMMETRIC NEW DIRECT SPARSE SOLVER RUNNING ON
 	1 HOST x 1 MPI RANK PER HOST x 8 THREADS PER RANK
        NUMBER OF EQUATIONS:  28822
        NUMBER OF RHS:        1
        NUMBER OF FLOPS:      1.080e+06
        SOLVER ELAPSED TIME:  4ms

               CONVERGENCE CHECKS FOR EQUILIBRIUM ITERATION     1


 AVERAGE FORCE                       0.00       TIME AVG. FORCE       1.000E-02
 ALL FORCE     RESIDUALS ARE ZERO
 LARGEST INCREMENT OF DISP.         8.950E-06   AT NODE         25   DOF  2
   INSTANCE: CHD2                                                                            
 LARGEST CORRECTION TO DISP.        2.711E-20   AT NODE         25   DOF  2
   INSTANCE: CHD2                                                                            
          THERE IS ZERO FORCE     EVERYWHERE

 ITERATION SUMMARY FOR THE INCREMENT:   1 TOTAL ITERATIONS, OF WHICH
   0 ARE SEVERE DISCONTINUITY ITERATIONS AND  1 ARE EQUILIBRIUM ITERATIONS.

 TIME INCREMENT COMPLETED   5.00    ,  FRACTION OF STEP COMPLETED  0.110    
 STEP TIME COMPLETED        110.    ,  TOTAL TIME COMPLETED         110.    


  INCREMENT    23 STARTS. ATTEMPT NUMBER  1, TIME INCREMENT   5.00    
 
	SYMMETRIC NEW DIRECT SPARSE SOLVER RUNNING ON
 	1 HOST x 1 MPI RANK PER HOST x 8 THREADS PER RANK
        NUMBER OF EQUATIONS:  28822
        NUMBER OF RHS:        1
        NUMBER OF FLOPS:      1.080e+06
        SOLVER ELAPSED TIME:  4ms

               CONVERGENCE CHECKS FOR EQUILIBRIUM ITERATION     1


 AVERAGE FORCE                       0.00       TIME AVG. FORCE       1.000E-02
 ALL FORCE     RESIDUALS ARE ZERO
 LARGEST INCREMENT OF DISP.         8.950E-06   AT NODE         25   DOF  2
   INSTANCE: CHD2                                                                            
 LARGEST CORRECTION TO DISP.         0.00       AT NODE         25   DOF  2
   INSTANCE: CHD2                                                                            
          THERE IS ZERO FORCE     EVERYWHERE

 ITERATION SUMMARY FOR THE INCREMENT:   1 TOTAL ITERATIONS, OF WHICH
   0 ARE SEVERE DISCONTINUITY ITERATIONS AND  1 ARE EQUILIBRIUM ITERATIONS.

 TIME INCREMENT COMPLETED   5.00    ,  FRACTION OF STEP COMPLETED  0.115    
 STEP TIME COMPLETED        115.    ,  TOTAL TIME COMPLETED         115.    


  INCREMENT    24 STARTS. ATTEMPT NUMBER  1, TIME INCREMENT   5.00    
 
	SYMMETRIC NEW DIRECT SPARSE SOLVER RUNNING ON
 	1 HOST x 1 MPI RANK PER HOST x 8 THREADS PER RANK
        NUMBER OF EQUATIONS:  28822
        NUMBER OF RHS:        1
        NUMBER OF FLOPS:      1.080e+06
        SOLVER ELAPSED TIME:  4ms

               CONVERGENCE CHECKS FOR EQUILIBRIUM ITERATION     1


 AVERAGE FORCE                       0.00       TIME AVG. FORCE       1.000E-02
 ALL FORCE     RESIDUALS ARE ZERO
 LARGEST INCREMENT OF DISP.         8.950E-06   AT NODE         25   DOF  2
   INSTANCE: CHD2                                                                            
 LARGEST CORRECTION TO DISP.         0.00       AT NODE         25   DOF  2
   INSTANCE: CHD2                                                                            
          THERE IS ZERO FORCE     EVERYWHERE

 ITERATION SUMMARY FOR THE INCREMENT:   1 TOTAL ITERATIONS, OF WHICH
   0 ARE SEVERE DISCONTINUITY ITERATIONS AND  1 ARE EQUILIBRIUM ITERATIONS.

 TIME INCREMENT COMPLETED   5.00    ,  FRACTION OF STEP COMPLETED  0.120    
 STEP TIME COMPLETED        120.    ,  TOTAL TIME COMPLETED         120.    


  INCREMENT    25 STARTS. ATTEMPT NUMBER  1, TIME INCREMENT   5.00    
 
	SYMMETRIC NEW DIRECT SPARSE SOLVER RUNNING ON
 	1 HOST x 1 MPI RANK PER HOST x 8 THREADS PER RANK
        NUMBER OF EQUATIONS:  28822
        NUMBER OF RHS:        1
        NUMBER OF FLOPS:      1.080e+06
        SOLVER ELAPSED TIME:  4ms

               CONVERGENCE CHECKS FOR EQUILIBRIUM ITERATION     1


 AVERAGE FORCE                       0.00       TIME AVG. FORCE       1.000E-02
 ALL FORCE     RESIDUALS ARE ZERO
 LARGEST INCREMENT OF DISP.         8.950E-06   AT NODE         25   DOF  2
   INSTANCE: CHD2                                                                            
 LARGEST CORRECTION TO DISP.         0.00       AT NODE         25   DOF  2
   INSTANCE: CHD2                                                                            
          THERE IS ZERO FORCE     EVERYWHERE

 ITERATION SUMMARY FOR THE INCREMENT:   1 TOTAL ITERATIONS, OF WHICH
   0 ARE SEVERE DISCONTINUITY ITERATIONS AND  1 ARE EQUILIBRIUM ITERATIONS.

 TIME INCREMENT COMPLETED   5.00    ,  FRACTION OF STEP COMPLETED  0.125    
 STEP TIME COMPLETED        125.    ,  TOTAL TIME COMPLETED         125.    


  INCREMENT    26 STARTS. ATTEMPT NUMBER  1, TIME INCREMENT   5.00    
 
	SYMMETRIC NEW DIRECT SPARSE SOLVER RUNNING ON
 	1 HOST x 1 MPI RANK PER HOST x 8 THREADS PER RANK
        NUMBER OF EQUATIONS:  28822
        NUMBER OF RHS:        1
        NUMBER OF FLOPS:      1.080e+06
        SOLVER ELAPSED TIME:  5ms

               CONVERGENCE CHECKS FOR EQUILIBRIUM ITERATION     1


 AVERAGE FORCE                       0.00       TIME AVG. FORCE       1.000E-02
 ALL FORCE     RESIDUALS ARE ZERO
 LARGEST INCREMENT OF DISP.         8.950E-06   AT NODE         25   DOF  2
   INSTANCE: CHD2                                                                            
 LARGEST CORRECTION TO DISP.         0.00       AT NODE         25   DOF  2
   INSTANCE: CHD2                                                                            
          THERE IS ZERO FORCE     EVERYWHERE

 ITERATION SUMMARY FOR THE INCREMENT:   1 TOTAL ITERATIONS, OF WHICH
   0 ARE SEVERE DISCONTINUITY ITERATIONS AND  1 ARE EQUILIBRIUM ITERATIONS.

 TIME INCREMENT COMPLETED   5.00    ,  FRACTION OF STEP COMPLETED  0.130    
 STEP TIME COMPLETED        130.    ,  TOTAL TIME COMPLETED         130.    


  INCREMENT    27 STARTS. ATTEMPT NUMBER  1, TIME INCREMENT   5.00    
 
	SYMMETRIC NEW DIRECT SPARSE SOLVER RUNNING ON
 	1 HOST x 1 MPI RANK PER HOST x 8 THREADS PER RANK
        NUMBER OF EQUATIONS:  28822
        NUMBER OF RHS:        1
        NUMBER OF FLOPS:      1.080e+06
        SOLVER ELAPSED TIME:  4ms

               CONVERGENCE CHECKS FOR EQUILIBRIUM ITERATION     1


 AVERAGE FORCE                       0.00       TIME AVG. FORCE       1.000E-02
 ALL FORCE     RESIDUALS ARE ZERO
 LARGEST INCREMENT OF DISP.         8.950E-06   AT NODE         25   DOF  2
   INSTANCE: CHD2                                                                            
 LARGEST CORRECTION TO DISP.        2.711E-20   AT NODE         25   DOF  2
   INSTANCE: CHD2                                                                            
          THERE IS ZERO FORCE     EVERYWHERE

 ITERATION SUMMARY FOR THE INCREMENT:   1 TOTAL ITERATIONS, OF WHICH
   0 ARE SEVERE DISCONTINUITY ITERATIONS AND  1 ARE EQUILIBRIUM ITERATIONS.

 TIME INCREMENT COMPLETED   5.00    ,  FRACTION OF STEP COMPLETED  0.135    
 STEP TIME COMPLETED        135.    ,  TOTAL TIME COMPLETED         135.    


  INCREMENT    28 STARTS. ATTEMPT NUMBER  1, TIME INCREMENT   5.00    
 
	SYMMETRIC NEW DIRECT SPARSE SOLVER RUNNING ON
 	1 HOST x 1 MPI RANK PER HOST x 8 THREADS PER RANK
        NUMBER OF EQUATIONS:  28822
        NUMBER OF RHS:        1
        NUMBER OF FLOPS:      1.080e+06
        SOLVER ELAPSED TIME:  4ms

               CONVERGENCE CHECKS FOR EQUILIBRIUM ITERATION     1


 AVERAGE FORCE                       0.00       TIME AVG. FORCE       1.000E-02
 ALL FORCE     RESIDUALS ARE ZERO
 LARGEST INCREMENT OF DISP.         8.950E-06   AT NODE         25   DOF  2
   INSTANCE: CHD2                                                                            
 LARGEST CORRECTION TO DISP.       -2.711E-20   AT NODE         25   DOF  2
   INSTANCE: CHD2                                                                            
          THERE IS ZERO FORCE     EVERYWHERE

 ITERATION SUMMARY FOR THE INCREMENT:   1 TOTAL ITERATIONS, OF WHICH
   0 ARE SEVERE DISCONTINUITY ITERATIONS AND  1 ARE EQUILIBRIUM ITERATIONS.

 TIME INCREMENT COMPLETED   5.00    ,  FRACTION OF STEP COMPLETED  0.140    
 STEP TIME COMPLETED        140.    ,  TOTAL TIME COMPLETED         140.    


  INCREMENT    29 STARTS. ATTEMPT NUMBER  1, TIME INCREMENT   5.00    
 
	SYMMETRIC NEW DIRECT SPARSE SOLVER RUNNING ON
 	1 HOST x 1 MPI RANK PER HOST x 8 THREADS PER RANK
        NUMBER OF EQUATIONS:  28822
        NUMBER OF RHS:        1
        NUMBER OF FLOPS:      1.080e+06
        SOLVER ELAPSED TIME:  4ms

               CONVERGENCE CHECKS FOR EQUILIBRIUM ITERATION     1


 AVERAGE FORCE                       0.00       TIME AVG. FORCE       1.000E-02
 ALL FORCE     RESIDUALS ARE ZERO
 LARGEST INCREMENT OF DISP.         8.950E-06   AT NODE         25   DOF  2
   INSTANCE: CHD2                                                                            
 LARGEST CORRECTION TO DISP.       -2.711E-20   AT NODE         25   DOF  2
   INSTANCE: CHD2                                                                            
          THERE IS ZERO FORCE     EVERYWHERE

 ITERATION SUMMARY FOR THE INCREMENT:   1 TOTAL ITERATIONS, OF WHICH
   0 ARE SEVERE DISCONTINUITY ITERATIONS AND  1 ARE EQUILIBRIUM ITERATIONS.

 TIME INCREMENT COMPLETED   5.00    ,  FRACTION OF STEP COMPLETED  0.145    
 STEP TIME COMPLETED        145.    ,  TOTAL TIME COMPLETED         145.    


  INCREMENT    30 STARTS. ATTEMPT NUMBER  1, TIME INCREMENT   5.00    
