 Abaqus/Standard 2023.HF4                  DATE 21-Oct-2024 TIME 16:04:23
 SUMMARY OF JOB INFORMATION:
 STEP  INC ATT SEVERE EQUIL TOTAL  TOTAL      STEP       INC OF       DOF    IF
               DISCON ITERS ITERS  TIME/    TIME/LPF    TIME/LPF    MONITOR RIKS
               ITERS               FREQ
   1     1   1     0     2     2  5.00       5.00       5.000     
   1     2   1     0     1     1  10.0       10.0       5.000     
   1     3   1     0     1     1  15.0       15.0       5.000     
   1     4   1     0     1     1  20.0       20.0       5.000     
   1     5   1     0     1     1  25.0       25.0       5.000     
   1     6   1     0     1     1  30.0       30.0       5.000     
   1     7   1     0     1     1  35.0       35.0       5.000     
   1     8   1     0     1     1  40.0       40.0       5.000     
   1     9   1     0     1     1  45.0       45.0       5.000     
   1    10   1     0     1     1  50.0       50.0       5.000     
   1    11   1     0     1     1  55.0       55.0       5.000     
   1    12   1     0     1     1  60.0       60.0       5.000     
   1    13   1     0     1     1  65.0       65.0       5.000     
   1    14   1     0     1     1  70.0       70.0       5.000     
   1    15   1     0     1     1  75.0       75.0       5.000     
   1    16   1     0     1     1  80.0       80.0       5.000     
   1    17   1     0     1     1  85.0       85.0       5.000     
   1    18   1     0     1     1  90.0       90.0       5.000     
   1    19   1     0     1     1  95.0       95.0       5.000     
   1    20   1     0     1     1  100.       100.       5.000     
   1    21   1     0     1     1  105.       105.       5.000     
   1    22   1     0     1     1  110.       110.       5.000     
   1    23   1     0     1     1  115.       115.       5.000     
   1    24   1     0     1     1  120.       120.       5.000     
   1    25   1     0     1     1  125.       125.       5.000     
   1    26   1     0     1     1  130.       130.       5.000     
   1    27   1     0     1     1  135.       135.       5.000     
   1    28   1     0     1     1  140.       140.       5.000     
   1    29   1     0     1     1  145.       145.       5.000     
   1    30   1     0     1     1  150.       150.       5.000     
   1    31   1     0     1     1  155.       155.       5.000     
   1    32   1     0     1     1  160.       160.       5.000     
   1    33   1     0     1     1  165.       165.       5.000     
   1    34   1     0     1     1  170.       170.       5.000     
   1    35   1     0     1     1  175.       175.       5.000     
   1    36   1     0     1     1  180.       180.       5.000     
   1    37   1     0     1     1  185.       185.       5.000     
   1    38   1     0     1     1  190.       190.       5.000     
   1    39   1     0     1     1  195.       195.       5.000     
   1    40   1     0     1     1  200.       200.       5.000     
   1    41   1     0     1     1  205.       205.       5.000     
   1    42   1     0     1     1  210.       210.       5.000     
   1    43   1     0     1     1  215.       215.       5.000     
   1    44   1     0     1     1  220.       220.       5.000     
   1    45   1     0     1     1  225.       225.       5.000     
   1    46   1     0     1     1  230.       230.       5.000     
   1    47   1     0     1     1  235.       235.       5.000     
   1    48   1     0     1     1  240.       240.       5.000     
   1    49   1     0     1     1  245.       245.       5.000     
   1    50   1     0     1     1  250.       250.       5.000     
   1    51   1     0     1     1  255.       255.       5.000     
   1    52   1     0     1     1  260.       260.       5.000     
   1    53   1     0     1     1  265.       265.       5.000     
   1    54   1     0     1     1  270.       270.       5.000     
   1    55   1     0     1     1  275.       275.       5.000     
   1    56   1     0     1     1  280.       280.       5.000     
   1    57   1     0     1     1  285.       285.       5.000     
   1    58   1     0     1     1  290.       290.       5.000     
   1    59   1     0     1     1  295.       295.       5.000     
   1    60   1     0     1     1  300.       300.       5.000     
   1    61   1     0     1     1  305.       305.       5.000     
   1    62   1     0     1     1  310.       310.       5.000     
