1

   Abaqus 2023.HF4                                  Date 21-Oct-2024   Time 16:04:18
   For use by AALTO UNIVERSITY under license from Dassault Systemes or its subsidiary.

                                                                                 
                                                                                 
 STEP    1     INCREMENT     1     STEP TIME    0.00    


                        S T E P       1     S T A T I C   A N A L Y S I S


                                                                                          

     AUTOMATIC TIME CONTROL WITH -
          A SUGGESTED INITIAL TIME INCREMENT OF                 5.00    
          AND A TOTAL TIME PERIOD OF                           1.000E+03
          THE MINIMUM TIME INCREMENT ALLOWED IS                1.000E-07
          THE MAXIMUM TIME INCREMENT ALLOWED IS                 5.00    

     LINEAR EQUATION SOLVER TYPE         DIRECT SPARSE

 CONVERGENCE TOLERANCE PARAMETERS FOR FORCE    
     CRITERION FOR RESIDUAL FORCE     FOR A NONLINEAR PROBLEM          5.000E-03
     CRITERION FOR DISP.    CORRECTION IN A NONLINEAR PROBLEM          1.000E-02
     INITIAL VALUE OF TIME AVERAGE FORCE                               1.000E-02
     AVERAGE FORCE     IS TIME AVERAGE FORCE    
     ALTERNATE CRIT. FOR RESIDUAL FORCE     FOR A NONLINEAR PROBLEM    2.000E-02
     CRITERION FOR ZERO FORCE     RELATIVE TO TIME AVRG. FORCE         1.000E-05
     CRITERION FOR RESIDUAL FORCE     WHEN THERE IS ZERO FLUX          1.000E-05
     CRITERION FOR DISP.    CORRECTION WHEN THERE IS ZERO FLUX         1.000E-03
     CRITERION FOR RESIDUAL FORCE     FOR A LINEAR INCREMENT           1.000E-08
     FIELD CONVERSION RATIO                                             1.00    
     CRITERION FOR ZERO FORCE     REL. TO TIME AVRG. MAX. FORCE        1.000E-05
     CRITERION FOR ZERO DISP.    RELATIVE TO CHARACTERISTIC LENGTH     1.000E-08

     VOLUMETRIC STRAIN COMPATIBILITY TOLERANCE FOR HYBRID SOLIDS       1.000E-05
     AXIAL STRAIN COMPATIBILITY TOLERANCE FOR HYBRID BEAMS             1.000E-05
     TRANS. SHEAR STRAIN COMPATIBILITY TOLERANCE FOR HYBRID BEAMS      1.000E-05
     SOFT CONTACT CONSTRAINT COMPATIBILITY TOLERANCE FOR P>P0          5.000E-03
     SOFT CONTACT CONSTRAINT COMPATIBILITY TOLERANCE FOR P=0.0         0.100    
     CONTACT FORCE ERROR TOLERANCE FOR CONVERT SDI=YES                 1.00    
     DISPLACEMENT COMPATIBILITY TOLERANCE FOR DCOUP ELEMENTS           1.000E-05
     ROTATION COMPATIBILITY TOLERANCE FOR DCOUP ELEMENTS               1.000E-05

 EQUILIBRIUM WILL BE CHECKED FOR SEVERE DISCONTINUITY ITERATIONS

 TIME INCREMENTATION CONTROL PARAMETERS:
     FIRST EQUILIBRIUM ITERATION FOR CONSECUTIVE DIVERGENCE CHECK              4
     EQUILIBRIUM ITERATION AT WHICH LOG. CONVERGENCE RATE CHECK BEGINS         8
     EQUILIBRIUM ITERATION AFTER WHICH ALTERNATE RESIDUAL IS USED              9
     MAXIMUM EQUILIBRIUM ITERATIONS ALLOWED                                   16
     EQUILIBRIUM ITERATION COUNT FOR CUT-BACK IN NEXT INCREMENT               10
     MAXIMUM EQUILIB. ITERS IN TWO INCREMENTS FOR TIME INCREMENT INCREASE      4
     MAXIMUM ITERATIONS FOR SEVERE DISCONTINUITIES                            50
     MAXIMUM ATTEMPTS ALLOWED IN AN INCREMENT                                  5
     MAXIMUM DISCON. ITERS IN TWO INCREMENTS FOR TIME INCREMENT INCREASE      50
     MAXIMUM CONTACT AUGMENTATIONS FOR *SURFACE BEHAVIOR,AUGMENTED LAGRANGE   50
     CUT-BACK FACTOR AFTER DIVERGENCE                                 0.2500    
     CUT-BACK FACTOR FOR TOO SLOW CONVERGENCE                         0.5000    
     CUT-BACK FACTOR AFTER TOO MANY EQUILIBRIUM ITERATIONS            0.7500    
     CUT-BACK FACTOR AFTER TOO MANY SEVERE DISCONTINUITY ITERATIONS   0.2500    
     CUT-BACK FACTOR AFTER PROBLEMS IN ELEMENT ASSEMBLY               0.2500    
     INCREASE FACTOR AFTER TWO INCREMENTS THAT CONVERGE QUICKLY        1.500    
     MAX. TIME INCREMENT INCREASE FACTOR ALLOWED                       1.500    
     MAX. TIME INCREMENT INCREASE FACTOR ALLOWED (DYNAMICS)            1.250    
     MAX. TIME INCREMENT INCREASE FACTOR ALLOWED (DIFFUSION)           2.000    
     MINIMUM TIME INCREMENT RATIO FOR EXTRAPOLATION TO OCCUR          0.1000    
     MAX. RATIO OF TIME INCREMENT TO STABILITY LIMIT                   1.000    
     FRACTION OF STABILITY LIMIT FOR NEW TIME INCREMENT               0.9500    
     TIME INCREMENT INCREASE FACTOR BEFORE A TIME POINT                1.000    
     GLOBAL STABILIZATION CONTROL IS NOT USED

          PRINT OF INCREMENT NUMBER, TIME, ETC., EVERY    1  INCREMENTS

     THE MAXIMUM NUMBER OF INCREMENTS IN THIS STEP IS                 1000000

          LARGE DISPLACEMENT THEORY WILL BE USED

     LINEAR EXTRAPOLATION WILL BE USED

     CHARACTERISTIC ELEMENT LENGTH     1.912E-04

     DETAILS REGARDING ACTUAL SOLUTION WAVEFRONT REQUESTED

     DETAILED OUTPUT OF DIAGNOSTICS TO DATABASE REQUESTED

     PRINT OF INCREMENT NUMBER, TIME, ETC., TO THE MESSAGE FILE EVERY     1  INCREMENTS

     ELEMENT OPERATIONS WILL BE CARRIED OUT IN PARALLEL USING   8 THREADS ON 1 DOMAIN

     PARALLEL CONTACT TRACKING ENABLED


     COLLECTING MODEL CONSTRAINT INFORMATION FOR OVERCONSTRAINT CHECKS

     COLLECTING STEP CONSTRAINT INFORMATION FOR OVERCONSTRAINT CHECKS


  INCREMENT     1 STARTS. ATTEMPT NUMBER  1, TIME INCREMENT   5.00    
 
     INITIAL ELEMENT LOAD BALANCE
            DOMAIN    1     THREAD    NUMBER OF ELEMENTS
                              1            9040
                              2            8776
                              3            8640
                              4            8344
                              5            9208
                              6            8920
                              7            8564
                              8            8664
 
	SYMMETRIC NEW DIRECT SPARSE SOLVER RUNNING ON
 	1 HOST x 1 MPI RANK PER HOST x 8 THREADS PER RANK
        NUMBER OF EQUATIONS:  131049
        NUMBER OF RHS:        1
        NUMBER OF FLOPS:      5.129e+10
        SOLVER ELAPSED TIME:  382ms

               CONVERGENCE CHECKS FOR EQUILIBRIUM ITERATION     1


 AVERAGE FORCE                      1.777E-02   TIME AVG. FORCE       1.777E-02
 LARGEST SCALED RESIDUAL FORCE      1.604E-03   AT NODE       2841   DOF  3
   INSTANCE: CHD2                                                                            
  CORRESPONDING RESIDUAL FORCE      1.604E-03
 LARGEST INCREMENT OF DISP.         8.950E-06   AT NODE         25   DOF  2
   INSTANCE: CHD2                                                                            
 LARGEST CORRECTION TO DISP.        8.950E-06   AT NODE         25   DOF  2
   INSTANCE: CHD2                                                                            
          FORCE     EQUILIBRIUM NOT ACHIEVED WITHIN TOLERANCE.
 
	SYMMETRIC NEW DIRECT SPARSE SOLVER RUNNING ON
 	1 HOST x 1 MPI RANK PER HOST x 8 THREADS PER RANK
        NUMBER OF EQUATIONS:  131049
        NUMBER OF RHS:        1
        NUMBER OF FLOPS:      5.129e+10
        SOLVER ELAPSED TIME:  333ms

               CONVERGENCE CHECKS FOR EQUILIBRIUM ITERATION     2


 AVERAGE FORCE                      1.777E-02   TIME AVG. FORCE       1.777E-02
 LARGEST SCALED RESIDUAL FORCE     -4.687E-08   AT NODE       2811   DOF  3
   INSTANCE: CHD2                                                                            
  CORRESPONDING RESIDUAL FORCE     -4.687E-08
 LARGEST INCREMENT OF DISP.         8.950E-06   AT NODE         25   DOF  2
   INSTANCE: CHD2                                                                            
 LARGEST CORRECTION TO DISP.        3.469E-11   AT NODE        239   DOF  2
   INSTANCE: CHD2                                                                            
          THE FORCE     EQUILIBRIUM EQUATIONS HAVE CONVERGED

 ITERATION SUMMARY FOR THE INCREMENT:   2 TOTAL ITERATIONS, OF WHICH
   0 ARE SEVERE DISCONTINUITY ITERATIONS AND  2 ARE EQUILIBRIUM ITERATIONS.

 TIME INCREMENT COMPLETED   5.00    ,  FRACTION OF STEP COMPLETED  5.000E-03
 STEP TIME COMPLETED        5.00    ,  TOTAL TIME COMPLETED         5.00    


  INCREMENT     2 STARTS. ATTEMPT NUMBER  1, TIME INCREMENT   5.00    
 
	SYMMETRIC NEW DIRECT SPARSE SOLVER RUNNING ON
 	1 HOST x 1 MPI RANK PER HOST x 8 THREADS PER RANK
        NUMBER OF EQUATIONS:  131049
        NUMBER OF RHS:        1
        NUMBER OF FLOPS:      5.129e+10
        SOLVER ELAPSED TIME:  540ms

               CONVERGENCE CHECKS FOR EQUILIBRIUM ITERATION     1


 AVERAGE FORCE                      9.059E-02   TIME AVG. FORCE       5.418E-02
 LARGEST SCALED RESIDUAL FORCE     -1.870E-07   AT NODE       2811   DOF  3
   INSTANCE: CHD2                                                                            
  CORRESPONDING RESIDUAL FORCE     -1.870E-07
 LARGEST INCREMENT OF DISP.         8.950E-06   AT NODE         25   DOF  2
   INSTANCE: CHD2                                                                            
 LARGEST CORRECTION TO DISP.        6.937E-11   AT NODE        239   DOF  2
   INSTANCE: CHD2                                                                            
          THE FORCE     EQUILIBRIUM EQUATIONS HAVE CONVERGED

 ITERATION SUMMARY FOR THE INCREMENT:   1 TOTAL ITERATIONS, OF WHICH
   0 ARE SEVERE DISCONTINUITY ITERATIONS AND  1 ARE EQUILIBRIUM ITERATIONS.

 TIME INCREMENT COMPLETED   5.00    ,  FRACTION OF STEP COMPLETED  1.000E-02
 STEP TIME COMPLETED        10.0    ,  TOTAL TIME COMPLETED         10.0    


  INCREMENT     3 STARTS. ATTEMPT NUMBER  1, TIME INCREMENT   5.00    
 
	SYMMETRIC NEW DIRECT SPARSE SOLVER RUNNING ON
 	1 HOST x 1 MPI RANK PER HOST x 8 THREADS PER RANK
        NUMBER OF EQUATIONS:  131049
        NUMBER OF RHS:        1
        NUMBER OF FLOPS:      5.129e+10
        SOLVER ELAPSED TIME:  437ms

               CONVERGENCE CHECKS FOR EQUILIBRIUM ITERATION     1


 AVERAGE FORCE                      0.136       TIME AVG. FORCE       8.141E-02
 LARGEST SCALED RESIDUAL FORCE     -2.806E-07   AT NODE       2811   DOF  3
   INSTANCE: CHD2                                                                            
  CORRESPONDING RESIDUAL FORCE     -2.806E-07
 LARGEST INCREMENT OF DISP.         8.950E-06   AT NODE         25   DOF  2
   INSTANCE: CHD2                                                                            
 LARGEST CORRECTION TO DISP.        6.936E-11   AT NODE        239   DOF  2
   INSTANCE: CHD2                                                                            
          THE FORCE     EQUILIBRIUM EQUATIONS HAVE CONVERGED

 ITERATION SUMMARY FOR THE INCREMENT:   1 TOTAL ITERATIONS, OF WHICH
   0 ARE SEVERE DISCONTINUITY ITERATIONS AND  1 ARE EQUILIBRIUM ITERATIONS.

 TIME INCREMENT COMPLETED   5.00    ,  FRACTION OF STEP COMPLETED  1.500E-02
 STEP TIME COMPLETED        15.0    ,  TOTAL TIME COMPLETED         15.0    


  INCREMENT     4 STARTS. ATTEMPT NUMBER  1, TIME INCREMENT   5.00    
 
	SYMMETRIC NEW DIRECT SPARSE SOLVER RUNNING ON
 	1 HOST x 1 MPI RANK PER HOST x 8 THREADS PER RANK
        NUMBER OF EQUATIONS:  131049
        NUMBER OF RHS:        1
        NUMBER OF FLOPS:      5.129e+10
        SOLVER ELAPSED TIME:  391ms

               CONVERGENCE CHECKS FOR EQUILIBRIUM ITERATION     1


 AVERAGE FORCE                      0.181       TIME AVG. FORCE       0.106    
 LARGEST SCALED RESIDUAL FORCE     -3.740E-07   AT NODE       2877   DOF  3
   INSTANCE: CHD2                                                                            
  CORRESPONDING RESIDUAL FORCE     -3.740E-07
 LARGEST INCREMENT OF DISP.         8.950E-06   AT NODE         25   DOF  2
   INSTANCE: CHD2                                                                            
 LARGEST CORRECTION TO DISP.        6.935E-11   AT NODE        239   DOF  2
   INSTANCE: CHD2                                                                            
          THE FORCE     EQUILIBRIUM EQUATIONS HAVE CONVERGED

 ITERATION SUMMARY FOR THE INCREMENT:   1 TOTAL ITERATIONS, OF WHICH
   0 ARE SEVERE DISCONTINUITY ITERATIONS AND  1 ARE EQUILIBRIUM ITERATIONS.

 TIME INCREMENT COMPLETED   5.00    ,  FRACTION OF STEP COMPLETED  2.000E-02
 STEP TIME COMPLETED        20.0    ,  TOTAL TIME COMPLETED         20.0    


  INCREMENT     5 STARTS. ATTEMPT NUMBER  1, TIME INCREMENT   5.00    
 
	SYMMETRIC NEW DIRECT SPARSE SOLVER RUNNING ON
 	1 HOST x 1 MPI RANK PER HOST x 8 THREADS PER RANK
        NUMBER OF EQUATIONS:  131049
        NUMBER OF RHS:        1
        NUMBER OF FLOPS:      5.129e+10
        SOLVER ELAPSED TIME:  545ms

               CONVERGENCE CHECKS FOR EQUILIBRIUM ITERATION     1


 AVERAGE FORCE                      0.226       TIME AVG. FORCE       0.130    
 LARGEST SCALED RESIDUAL FORCE     -4.671E-07   AT NODE       2877   DOF  3
   INSTANCE: CHD2                                                                            
  CORRESPONDING RESIDUAL FORCE     -4.671E-07
 LARGEST INCREMENT OF DISP.         8.950E-06   AT NODE         25   DOF  2
   INSTANCE: CHD2                                                                            
 LARGEST CORRECTION TO DISP.        6.934E-11   AT NODE        239   DOF  2
   INSTANCE: CHD2                                                                            
          THE FORCE     EQUILIBRIUM EQUATIONS HAVE CONVERGED

 ITERATION SUMMARY FOR THE INCREMENT:   1 TOTAL ITERATIONS, OF WHICH
   0 ARE SEVERE DISCONTINUITY ITERATIONS AND  1 ARE EQUILIBRIUM ITERATIONS.

 TIME INCREMENT COMPLETED   5.00    ,  FRACTION OF STEP COMPLETED  2.500E-02
 STEP TIME COMPLETED        25.0    ,  TOTAL TIME COMPLETED         25.0    


  INCREMENT     6 STARTS. ATTEMPT NUMBER  1, TIME INCREMENT   5.00    
 
	SYMMETRIC NEW DIRECT SPARSE SOLVER RUNNING ON
 	1 HOST x 1 MPI RANK PER HOST x 8 THREADS PER RANK
        NUMBER OF EQUATIONS:  131049
        NUMBER OF RHS:        1
        NUMBER OF FLOPS:      5.129e+10
        SOLVER ELAPSED TIME:  568ms

               CONVERGENCE CHECKS FOR EQUILIBRIUM ITERATION     1


 AVERAGE FORCE                      0.272       TIME AVG. FORCE       0.154    
 LARGEST SCALED RESIDUAL FORCE     -5.606E-07   AT NODE       2811   DOF  3
   INSTANCE: CHD2                                                                            
  CORRESPONDING RESIDUAL FORCE     -5.606E-07
 LARGEST INCREMENT OF DISP.         8.950E-06   AT NODE         25   DOF  2
   INSTANCE: CHD2                                                                            
 LARGEST CORRECTION TO DISP.        6.933E-11   AT NODE        239   DOF  2
   INSTANCE: CHD2                                                                            
          THE FORCE     EQUILIBRIUM EQUATIONS HAVE CONVERGED

 ITERATION SUMMARY FOR THE INCREMENT:   1 TOTAL ITERATIONS, OF WHICH
   0 ARE SEVERE DISCONTINUITY ITERATIONS AND  1 ARE EQUILIBRIUM ITERATIONS.

 TIME INCREMENT COMPLETED   5.00    ,  FRACTION OF STEP COMPLETED  3.000E-02
 STEP TIME COMPLETED        30.0    ,  TOTAL TIME COMPLETED         30.0    


  INCREMENT     7 STARTS. ATTEMPT NUMBER  1, TIME INCREMENT   5.00    
 
	SYMMETRIC NEW DIRECT SPARSE SOLVER RUNNING ON
 	1 HOST x 1 MPI RANK PER HOST x 8 THREADS PER RANK
        NUMBER OF EQUATIONS:  131049
        NUMBER OF RHS:        1
        NUMBER OF FLOPS:      5.129e+10
        SOLVER ELAPSED TIME:  548ms

               CONVERGENCE CHECKS FOR EQUILIBRIUM ITERATION     1


 AVERAGE FORCE                      0.317       TIME AVG. FORCE       0.177    
 LARGEST SCALED RESIDUAL FORCE     -6.539E-07   AT NODE       2877   DOF  3
   INSTANCE: CHD2                                                                            
  CORRESPONDING RESIDUAL FORCE     -6.539E-07
 LARGEST INCREMENT OF DISP.         8.950E-06   AT NODE         25   DOF  2
   INSTANCE: CHD2                                                                            
 LARGEST CORRECTION TO DISP.        6.932E-11   AT NODE        239   DOF  2
   INSTANCE: CHD2                                                                            
          THE FORCE     EQUILIBRIUM EQUATIONS HAVE CONVERGED

 ITERATION SUMMARY FOR THE INCREMENT:   1 TOTAL ITERATIONS, OF WHICH
   0 ARE SEVERE DISCONTINUITY ITERATIONS AND  1 ARE EQUILIBRIUM ITERATIONS.

 TIME INCREMENT COMPLETED   5.00    ,  FRACTION OF STEP COMPLETED  3.500E-02
 STEP TIME COMPLETED        35.0    ,  TOTAL TIME COMPLETED         35.0    


  INCREMENT     8 STARTS. ATTEMPT NUMBER  1, TIME INCREMENT   5.00    
 
	SYMMETRIC NEW DIRECT SPARSE SOLVER RUNNING ON
 	1 HOST x 1 MPI RANK PER HOST x 8 THREADS PER RANK
        NUMBER OF EQUATIONS:  131049
        NUMBER OF RHS:        1
        NUMBER OF FLOPS:      5.129e+10
        SOLVER ELAPSED TIME:  546ms

               CONVERGENCE CHECKS FOR EQUILIBRIUM ITERATION     1


 AVERAGE FORCE                      0.362       TIME AVG. FORCE       0.200    
 LARGEST SCALED RESIDUAL FORCE     -7.471E-07   AT NODE       2877   DOF  3
   INSTANCE: CHD2                                                                            
  CORRESPONDING RESIDUAL FORCE     -7.471E-07
 LARGEST INCREMENT OF DISP.         8.950E-06   AT NODE         25   DOF  2
   INSTANCE: CHD2                                                                            
 LARGEST CORRECTION TO DISP.        6.931E-11   AT NODE        239   DOF  2
   INSTANCE: CHD2                                                                            
          THE FORCE     EQUILIBRIUM EQUATIONS HAVE CONVERGED

 ITERATION SUMMARY FOR THE INCREMENT:   1 TOTAL ITERATIONS, OF WHICH
   0 ARE SEVERE DISCONTINUITY ITERATIONS AND  1 ARE EQUILIBRIUM ITERATIONS.

 TIME INCREMENT COMPLETED   5.00    ,  FRACTION OF STEP COMPLETED  4.000E-02
 STEP TIME COMPLETED        40.0    ,  TOTAL TIME COMPLETED         40.0    


  INCREMENT     9 STARTS. ATTEMPT NUMBER  1, TIME INCREMENT   5.00    
 
	SYMMETRIC NEW DIRECT SPARSE SOLVER RUNNING ON
 	1 HOST x 1 MPI RANK PER HOST x 8 THREADS PER RANK
        NUMBER OF EQUATIONS:  131049
        NUMBER OF RHS:        1
        NUMBER OF FLOPS:      5.129e+10
        SOLVER ELAPSED TIME:  542ms

               CONVERGENCE CHECKS FOR EQUILIBRIUM ITERATION     1


 AVERAGE FORCE                      0.407       TIME AVG. FORCE       0.223    
 LARGEST SCALED RESIDUAL FORCE     -8.405E-07   AT NODE       2811   DOF  3
   INSTANCE: CHD2                                                                            
  CORRESPONDING RESIDUAL FORCE     -8.405E-07
 LARGEST INCREMENT OF DISP.         8.950E-06   AT NODE         25   DOF  2
   INSTANCE: CHD2                                                                            
 LARGEST CORRECTION TO DISP.        6.930E-11   AT NODE        239   DOF  2
   INSTANCE: CHD2                                                                            
          THE FORCE     EQUILIBRIUM EQUATIONS HAVE CONVERGED

 ITERATION SUMMARY FOR THE INCREMENT:   1 TOTAL ITERATIONS, OF WHICH
   0 ARE SEVERE DISCONTINUITY ITERATIONS AND  1 ARE EQUILIBRIUM ITERATIONS.

 TIME INCREMENT COMPLETED   5.00    ,  FRACTION OF STEP COMPLETED  4.500E-02
 STEP TIME COMPLETED        45.0    ,  TOTAL TIME COMPLETED         45.0    


  INCREMENT    10 STARTS. ATTEMPT NUMBER  1, TIME INCREMENT   5.00    
 
	SYMMETRIC NEW DIRECT SPARSE SOLVER RUNNING ON
 	1 HOST x 1 MPI RANK PER HOST x 8 THREADS PER RANK
        NUMBER OF EQUATIONS:  131049
        NUMBER OF RHS:        1
        NUMBER OF FLOPS:      5.129e+10
        SOLVER ELAPSED TIME:  550ms

               CONVERGENCE CHECKS FOR EQUILIBRIUM ITERATION     1


 AVERAGE FORCE                      0.453       TIME AVG. FORCE       0.246    
 LARGEST SCALED RESIDUAL FORCE     -9.333E-07   AT NODE       2811   DOF  3
   INSTANCE: CHD2                                                                            
  CORRESPONDING RESIDUAL FORCE     -9.333E-07
 LARGEST INCREMENT OF DISP.         8.950E-06   AT NODE         25   DOF  2
   INSTANCE: CHD2                                                                            
 LARGEST CORRECTION TO DISP.        6.929E-11   AT NODE        239   DOF  2
   INSTANCE: CHD2                                                                            
          THE FORCE     EQUILIBRIUM EQUATIONS HAVE CONVERGED

 ITERATION SUMMARY FOR THE INCREMENT:   1 TOTAL ITERATIONS, OF WHICH
   0 ARE SEVERE DISCONTINUITY ITERATIONS AND  1 ARE EQUILIBRIUM ITERATIONS.

 TIME INCREMENT COMPLETED   5.00    ,  FRACTION OF STEP COMPLETED  5.000E-02
 STEP TIME COMPLETED        50.0    ,  TOTAL TIME COMPLETED         50.0    


  INCREMENT    11 STARTS. ATTEMPT NUMBER  1, TIME INCREMENT   5.00    
 
	SYMMETRIC NEW DIRECT SPARSE SOLVER RUNNING ON
 	1 HOST x 1 MPI RANK PER HOST x 8 THREADS PER RANK
        NUMBER OF EQUATIONS:  131049
        NUMBER OF RHS:        1
        NUMBER OF FLOPS:      5.129e+10
        SOLVER ELAPSED TIME:  550ms

               CONVERGENCE CHECKS FOR EQUILIBRIUM ITERATION     1


 AVERAGE FORCE                      0.498       TIME AVG. FORCE       0.269    
 LARGEST SCALED RESIDUAL FORCE     -1.026E-06   AT NODE       2811   DOF  3
   INSTANCE: CHD2                                                                            
  CORRESPONDING RESIDUAL FORCE     -1.026E-06
 LARGEST INCREMENT OF DISP.         8.950E-06   AT NODE         25   DOF  2
   INSTANCE: CHD2                                                                            
 LARGEST CORRECTION TO DISP.        6.928E-11   AT NODE        239   DOF  2
   INSTANCE: CHD2                                                                            
          THE FORCE     EQUILIBRIUM EQUATIONS HAVE CONVERGED

 ITERATION SUMMARY FOR THE INCREMENT:   1 TOTAL ITERATIONS, OF WHICH
   0 ARE SEVERE DISCONTINUITY ITERATIONS AND  1 ARE EQUILIBRIUM ITERATIONS.

 TIME INCREMENT COMPLETED   5.00    ,  FRACTION OF STEP COMPLETED  5.500E-02
 STEP TIME COMPLETED        55.0    ,  TOTAL TIME COMPLETED         55.0    


  INCREMENT    12 STARTS. ATTEMPT NUMBER  1, TIME INCREMENT   5.00    
 
	SYMMETRIC NEW DIRECT SPARSE SOLVER RUNNING ON
 	1 HOST x 1 MPI RANK PER HOST x 8 THREADS PER RANK
        NUMBER OF EQUATIONS:  131049
        NUMBER OF RHS:        1
        NUMBER OF FLOPS:      5.129e+10
        SOLVER ELAPSED TIME:  544ms

               CONVERGENCE CHECKS FOR EQUILIBRIUM ITERATION     1


 AVERAGE FORCE                      0.543       TIME AVG. FORCE       0.292    
 LARGEST SCALED RESIDUAL FORCE     -1.120E-06   AT NODE       2811   DOF  3
   INSTANCE: CHD2                                                                            
  CORRESPONDING RESIDUAL FORCE     -1.120E-06
 LARGEST INCREMENT OF DISP.         8.950E-06   AT NODE         25   DOF  2
   INSTANCE: CHD2                                                                            
 LARGEST CORRECTION TO DISP.        6.927E-11   AT NODE        239   DOF  2
   INSTANCE: CHD2                                                                            
          THE FORCE     EQUILIBRIUM EQUATIONS HAVE CONVERGED

 ITERATION SUMMARY FOR THE INCREMENT:   1 TOTAL ITERATIONS, OF WHICH
   0 ARE SEVERE DISCONTINUITY ITERATIONS AND  1 ARE EQUILIBRIUM ITERATIONS.

 TIME INCREMENT COMPLETED   5.00    ,  FRACTION OF STEP COMPLETED  6.000E-02
 STEP TIME COMPLETED        60.0    ,  TOTAL TIME COMPLETED         60.0    


  INCREMENT    13 STARTS. ATTEMPT NUMBER  1, TIME INCREMENT   5.00    
 
	SYMMETRIC NEW DIRECT SPARSE SOLVER RUNNING ON
 	1 HOST x 1 MPI RANK PER HOST x 8 THREADS PER RANK
        NUMBER OF EQUATIONS:  131049
        NUMBER OF RHS:        1
        NUMBER OF FLOPS:      5.129e+10
        SOLVER ELAPSED TIME:  561ms

               CONVERGENCE CHECKS FOR EQUILIBRIUM ITERATION     1


 AVERAGE FORCE                      0.588       TIME AVG. FORCE       0.315    
 LARGEST SCALED RESIDUAL FORCE     -1.212E-06   AT NODE       2877   DOF  3
   INSTANCE: CHD2                                                                            
  CORRESPONDING RESIDUAL FORCE     -1.212E-06
 LARGEST INCREMENT OF DISP.         8.950E-06   AT NODE         25   DOF  2
   INSTANCE: CHD2                                                                            
 LARGEST CORRECTION TO DISP.        6.926E-11   AT NODE        239   DOF  2
   INSTANCE: CHD2                                                                            
          THE FORCE     EQUILIBRIUM EQUATIONS HAVE CONVERGED

 ITERATION SUMMARY FOR THE INCREMENT:   1 TOTAL ITERATIONS, OF WHICH
   0 ARE SEVERE DISCONTINUITY ITERATIONS AND  1 ARE EQUILIBRIUM ITERATIONS.

 TIME INCREMENT COMPLETED   5.00    ,  FRACTION OF STEP COMPLETED  6.500E-02
 STEP TIME COMPLETED        65.0    ,  TOTAL TIME COMPLETED         65.0    


  INCREMENT    14 STARTS. ATTEMPT NUMBER  1, TIME INCREMENT   5.00    
 
	SYMMETRIC NEW DIRECT SPARSE SOLVER RUNNING ON
 	1 HOST x 1 MPI RANK PER HOST x 8 THREADS PER RANK
        NUMBER OF EQUATIONS:  131049
        NUMBER OF RHS:        1
        NUMBER OF FLOPS:      5.129e+10
        SOLVER ELAPSED TIME:  576ms

               CONVERGENCE CHECKS FOR EQUILIBRIUM ITERATION     1


 AVERAGE FORCE                      0.633       TIME AVG. FORCE       0.338    
 LARGEST SCALED RESIDUAL FORCE     -1.305E-06   AT NODE       2811   DOF  3
   INSTANCE: CHD2                                                                            
  CORRESPONDING RESIDUAL FORCE     -1.305E-06
 LARGEST INCREMENT OF DISP.         8.950E-06   AT NODE         25   DOF  2
   INSTANCE: CHD2                                                                            
 LARGEST CORRECTION TO DISP.        6.925E-11   AT NODE        239   DOF  2
   INSTANCE: CHD2                                                                            
          THE FORCE     EQUILIBRIUM EQUATIONS HAVE CONVERGED

 ITERATION SUMMARY FOR THE INCREMENT:   1 TOTAL ITERATIONS, OF WHICH
   0 ARE SEVERE DISCONTINUITY ITERATIONS AND  1 ARE EQUILIBRIUM ITERATIONS.

 TIME INCREMENT COMPLETED   5.00    ,  FRACTION OF STEP COMPLETED  7.000E-02
 STEP TIME COMPLETED        70.0    ,  TOTAL TIME COMPLETED         70.0    


  INCREMENT    15 STARTS. ATTEMPT NUMBER  1, TIME INCREMENT   5.00    
 
	SYMMETRIC NEW DIRECT SPARSE SOLVER RUNNING ON
 	1 HOST x 1 MPI RANK PER HOST x 8 THREADS PER RANK
        NUMBER OF EQUATIONS:  131049
        NUMBER OF RHS:        1
        NUMBER OF FLOPS:      5.129e+10
        SOLVER ELAPSED TIME:  561ms

               CONVERGENCE CHECKS FOR EQUILIBRIUM ITERATION     1


 AVERAGE FORCE                      0.679       TIME AVG. FORCE       0.360    
 LARGEST SCALED RESIDUAL FORCE     -1.398E-06   AT NODE       2811   DOF  3
   INSTANCE: CHD2                                                                            
  CORRESPONDING RESIDUAL FORCE     -1.398E-06
 LARGEST INCREMENT OF DISP.         8.950E-06   AT NODE         25   DOF  2
   INSTANCE: CHD2                                                                            
 LARGEST CORRECTION TO DISP.        6.924E-11   AT NODE        239   DOF  2
   INSTANCE: CHD2                                                                            
          THE FORCE     EQUILIBRIUM EQUATIONS HAVE CONVERGED

 ITERATION SUMMARY FOR THE INCREMENT:   1 TOTAL ITERATIONS, OF WHICH
   0 ARE SEVERE DISCONTINUITY ITERATIONS AND  1 ARE EQUILIBRIUM ITERATIONS.

 TIME INCREMENT COMPLETED   5.00    ,  FRACTION OF STEP COMPLETED  7.500E-02
 STEP TIME COMPLETED        75.0    ,  TOTAL TIME COMPLETED         75.0    


  INCREMENT    16 STARTS. ATTEMPT NUMBER  1, TIME INCREMENT   5.00    
 
	SYMMETRIC NEW DIRECT SPARSE SOLVER RUNNING ON
 	1 HOST x 1 MPI RANK PER HOST x 8 THREADS PER RANK
        NUMBER OF EQUATIONS:  131049
        NUMBER OF RHS:        1
        NUMBER OF FLOPS:      5.129e+10
        SOLVER ELAPSED TIME:  576ms

               CONVERGENCE CHECKS FOR EQUILIBRIUM ITERATION     1


 AVERAGE FORCE                      0.724       TIME AVG. FORCE       0.383    
 LARGEST SCALED RESIDUAL FORCE     -1.491E-06   AT NODE       2811   DOF  3
   INSTANCE: CHD2                                                                            
  CORRESPONDING RESIDUAL FORCE     -1.491E-06
 LARGEST INCREMENT OF DISP.         8.950E-06   AT NODE         25   DOF  2
   INSTANCE: CHD2                                                                            
 LARGEST CORRECTION TO DISP.        6.923E-11   AT NODE        239   DOF  2
   INSTANCE: CHD2                                                                            
          THE FORCE     EQUILIBRIUM EQUATIONS HAVE CONVERGED

 ITERATION SUMMARY FOR THE INCREMENT:   1 TOTAL ITERATIONS, OF WHICH
   0 ARE SEVERE DISCONTINUITY ITERATIONS AND  1 ARE EQUILIBRIUM ITERATIONS.

 TIME INCREMENT COMPLETED   5.00    ,  FRACTION OF STEP COMPLETED  8.000E-02
 STEP TIME COMPLETED        80.0    ,  TOTAL TIME COMPLETED         80.0    


  INCREMENT    17 STARTS. ATTEMPT NUMBER  1, TIME INCREMENT   5.00    
 
	SYMMETRIC NEW DIRECT SPARSE SOLVER RUNNING ON
 	1 HOST x 1 MPI RANK PER HOST x 8 THREADS PER RANK
        NUMBER OF EQUATIONS:  131049
        NUMBER OF RHS:        1
        NUMBER OF FLOPS:      5.129e+10
        SOLVER ELAPSED TIME:  547ms

               CONVERGENCE CHECKS FOR EQUILIBRIUM ITERATION     1


 AVERAGE FORCE                      0.769       TIME AVG. FORCE       0.406    
 LARGEST SCALED RESIDUAL FORCE     -1.584E-06   AT NODE       2811   DOF  3
   INSTANCE: CHD2                                                                            
  CORRESPONDING RESIDUAL FORCE     -1.584E-06
 LARGEST INCREMENT OF DISP.         8.950E-06   AT NODE         25   DOF  2
   INSTANCE: CHD2                                                                            
 LARGEST CORRECTION TO DISP.        6.922E-11   AT NODE        239   DOF  2
   INSTANCE: CHD2                                                                            
          THE FORCE     EQUILIBRIUM EQUATIONS HAVE CONVERGED

 ITERATION SUMMARY FOR THE INCREMENT:   1 TOTAL ITERATIONS, OF WHICH
   0 ARE SEVERE DISCONTINUITY ITERATIONS AND  1 ARE EQUILIBRIUM ITERATIONS.

 TIME INCREMENT COMPLETED   5.00    ,  FRACTION OF STEP COMPLETED  8.500E-02
 STEP TIME COMPLETED        85.0    ,  TOTAL TIME COMPLETED         85.0    


  INCREMENT    18 STARTS. ATTEMPT NUMBER  1, TIME INCREMENT   5.00    
 
	SYMMETRIC NEW DIRECT SPARSE SOLVER RUNNING ON
 	1 HOST x 1 MPI RANK PER HOST x 8 THREADS PER RANK
        NUMBER OF EQUATIONS:  131049
        NUMBER OF RHS:        1
        NUMBER OF FLOPS:      5.129e+10
        SOLVER ELAPSED TIME:  548ms

               CONVERGENCE CHECKS FOR EQUILIBRIUM ITERATION     1


 AVERAGE FORCE                      0.814       TIME AVG. FORCE       0.428    
 LARGEST SCALED RESIDUAL FORCE     -1.676E-06   AT NODE       2811   DOF  3
   INSTANCE: CHD2                                                                            
  CORRESPONDING RESIDUAL FORCE     -1.676E-06
 LARGEST INCREMENT OF DISP.         8.950E-06   AT NODE         25   DOF  2
   INSTANCE: CHD2                                                                            
 LARGEST CORRECTION TO DISP.        6.922E-11   AT NODE        239   DOF  2
   INSTANCE: CHD2                                                                            
          THE FORCE     EQUILIBRIUM EQUATIONS HAVE CONVERGED

 ITERATION SUMMARY FOR THE INCREMENT:   1 TOTAL ITERATIONS, OF WHICH
   0 ARE SEVERE DISCONTINUITY ITERATIONS AND  1 ARE EQUILIBRIUM ITERATIONS.

 TIME INCREMENT COMPLETED   5.00    ,  FRACTION OF STEP COMPLETED  9.000E-02
 STEP TIME COMPLETED        90.0    ,  TOTAL TIME COMPLETED         90.0    


  INCREMENT    19 STARTS. ATTEMPT NUMBER  1, TIME INCREMENT   5.00    
 
	SYMMETRIC NEW DIRECT SPARSE SOLVER RUNNING ON
 	1 HOST x 1 MPI RANK PER HOST x 8 THREADS PER RANK
        NUMBER OF EQUATIONS:  131049
        NUMBER OF RHS:        1
        NUMBER OF FLOPS:      5.129e+10
        SOLVER ELAPSED TIME:  555ms

               CONVERGENCE CHECKS FOR EQUILIBRIUM ITERATION     1


 AVERAGE FORCE                      0.859       TIME AVG. FORCE       0.451    
 LARGEST SCALED RESIDUAL FORCE     -1.769E-06   AT NODE       2811   DOF  3
   INSTANCE: CHD2                                                                            
  CORRESPONDING RESIDUAL FORCE     -1.769E-06
 LARGEST INCREMENT OF DISP.         8.950E-06   AT NODE         25   DOF  2
   INSTANCE: CHD2                                                                            
 LARGEST CORRECTION TO DISP.        6.921E-11   AT NODE        239   DOF  2
   INSTANCE: CHD2                                                                            
          THE FORCE     EQUILIBRIUM EQUATIONS HAVE CONVERGED

 ITERATION SUMMARY FOR THE INCREMENT:   1 TOTAL ITERATIONS, OF WHICH
   0 ARE SEVERE DISCONTINUITY ITERATIONS AND  1 ARE EQUILIBRIUM ITERATIONS.

 TIME INCREMENT COMPLETED   5.00    ,  FRACTION OF STEP COMPLETED  9.500E-02
 STEP TIME COMPLETED        95.0    ,  TOTAL TIME COMPLETED         95.0    


  INCREMENT    20 STARTS. ATTEMPT NUMBER  1, TIME INCREMENT   5.00    
 
	SYMMETRIC NEW DIRECT SPARSE SOLVER RUNNING ON
 	1 HOST x 1 MPI RANK PER HOST x 8 THREADS PER RANK
        NUMBER OF EQUATIONS:  131049
        NUMBER OF RHS:        1
        NUMBER OF FLOPS:      5.129e+10
        SOLVER ELAPSED TIME:  561ms

               CONVERGENCE CHECKS FOR EQUILIBRIUM ITERATION     1


 AVERAGE FORCE                      0.905       TIME AVG. FORCE       0.474    
 LARGEST SCALED RESIDUAL FORCE     -1.861E-06   AT NODE       2811   DOF  3
   INSTANCE: CHD2                                                                            
  CORRESPONDING RESIDUAL FORCE     -1.861E-06
 LARGEST INCREMENT OF DISP.         8.950E-06   AT NODE         25   DOF  2
   INSTANCE: CHD2                                                                            
 LARGEST CORRECTION TO DISP.        6.920E-11   AT NODE        239   DOF  2
   INSTANCE: CHD2                                                                            
          THE FORCE     EQUILIBRIUM EQUATIONS HAVE CONVERGED

 ITERATION SUMMARY FOR THE INCREMENT:   1 TOTAL ITERATIONS, OF WHICH
   0 ARE SEVERE DISCONTINUITY ITERATIONS AND  1 ARE EQUILIBRIUM ITERATIONS.

 TIME INCREMENT COMPLETED   5.00    ,  FRACTION OF STEP COMPLETED  0.100    
 STEP TIME COMPLETED        100.    ,  TOTAL TIME COMPLETED         100.    


  INCREMENT    21 STARTS. ATTEMPT NUMBER  1, TIME INCREMENT   5.00    
 
	SYMMETRIC NEW DIRECT SPARSE SOLVER RUNNING ON
 	1 HOST x 1 MPI RANK PER HOST x 8 THREADS PER RANK
        NUMBER OF EQUATIONS:  131049
        NUMBER OF RHS:        1
        NUMBER OF FLOPS:      5.129e+10
        SOLVER ELAPSED TIME:  561ms

               CONVERGENCE CHECKS FOR EQUILIBRIUM ITERATION     1


 AVERAGE FORCE                      0.950       TIME AVG. FORCE       0.496    
 LARGEST SCALED RESIDUAL FORCE     -1.954E-06   AT NODE       2811   DOF  3
   INSTANCE: CHD2                                                                            
  CORRESPONDING RESIDUAL FORCE     -1.954E-06
 LARGEST INCREMENT OF DISP.         8.950E-06   AT NODE         25   DOF  2
   INSTANCE: CHD2                                                                            
 LARGEST CORRECTION TO DISP.        6.919E-11   AT NODE        239   DOF  2
   INSTANCE: CHD2                                                                            
          THE FORCE     EQUILIBRIUM EQUATIONS HAVE CONVERGED

 ITERATION SUMMARY FOR THE INCREMENT:   1 TOTAL ITERATIONS, OF WHICH
   0 ARE SEVERE DISCONTINUITY ITERATIONS AND  1 ARE EQUILIBRIUM ITERATIONS.

 TIME INCREMENT COMPLETED   5.00    ,  FRACTION OF STEP COMPLETED  0.105    
 STEP TIME COMPLETED        105.    ,  TOTAL TIME COMPLETED         105.    


  INCREMENT    22 STARTS. ATTEMPT NUMBER  1, TIME INCREMENT   5.00    
 
	SYMMETRIC NEW DIRECT SPARSE SOLVER RUNNING ON
 	1 HOST x 1 MPI RANK PER HOST x 8 THREADS PER RANK
        NUMBER OF EQUATIONS:  131049
        NUMBER OF RHS:        1
        NUMBER OF FLOPS:      5.129e+10
        SOLVER ELAPSED TIME:  515ms

               CONVERGENCE CHECKS FOR EQUILIBRIUM ITERATION     1


 AVERAGE FORCE                      0.995       TIME AVG. FORCE       0.519    
 LARGEST SCALED RESIDUAL FORCE     -2.047E-06   AT NODE       2811   DOF  3
   INSTANCE: CHD2                                                                            
  CORRESPONDING RESIDUAL FORCE     -2.047E-06
 LARGEST INCREMENT OF DISP.         8.950E-06   AT NODE         25   DOF  2
   INSTANCE: CHD2                                                                            
 LARGEST CORRECTION TO DISP.        6.918E-11   AT NODE        239   DOF  2
   INSTANCE: CHD2                                                                            
          THE FORCE     EQUILIBRIUM EQUATIONS HAVE CONVERGED

 ITERATION SUMMARY FOR THE INCREMENT:   1 TOTAL ITERATIONS, OF WHICH
   0 ARE SEVERE DISCONTINUITY ITERATIONS AND  1 ARE EQUILIBRIUM ITERATIONS.

 TIME INCREMENT COMPLETED   5.00    ,  FRACTION OF STEP COMPLETED  0.110    
 STEP TIME COMPLETED        110.    ,  TOTAL TIME COMPLETED         110.    


  INCREMENT    23 STARTS. ATTEMPT NUMBER  1, TIME INCREMENT   5.00    
 
	SYMMETRIC NEW DIRECT SPARSE SOLVER RUNNING ON
 	1 HOST x 1 MPI RANK PER HOST x 8 THREADS PER RANK
        NUMBER OF EQUATIONS:  131049
        NUMBER OF RHS:        1
        NUMBER OF FLOPS:      5.129e+10
        SOLVER ELAPSED TIME:  536ms

               CONVERGENCE CHECKS FOR EQUILIBRIUM ITERATION     1


 AVERAGE FORCE                       1.04       TIME AVG. FORCE       0.542    
 LARGEST SCALED RESIDUAL FORCE     -2.139E-06   AT NODE       2811   DOF  3
   INSTANCE: CHD2                                                                            
  CORRESPONDING RESIDUAL FORCE     -2.139E-06
 LARGEST INCREMENT OF DISP.         8.950E-06   AT NODE         25   DOF  2
   INSTANCE: CHD2                                                                            
 LARGEST CORRECTION TO DISP.        6.917E-11   AT NODE        239   DOF  2
   INSTANCE: CHD2                                                                            
          THE FORCE     EQUILIBRIUM EQUATIONS HAVE CONVERGED

 ITERATION SUMMARY FOR THE INCREMENT:   1 TOTAL ITERATIONS, OF WHICH
   0 ARE SEVERE DISCONTINUITY ITERATIONS AND  1 ARE EQUILIBRIUM ITERATIONS.

 TIME INCREMENT COMPLETED   5.00    ,  FRACTION OF STEP COMPLETED  0.115    
 STEP TIME COMPLETED        115.    ,  TOTAL TIME COMPLETED         115.    


  INCREMENT    24 STARTS. ATTEMPT NUMBER  1, TIME INCREMENT   5.00    
 
	SYMMETRIC NEW DIRECT SPARSE SOLVER RUNNING ON
 	1 HOST x 1 MPI RANK PER HOST x 8 THREADS PER RANK
        NUMBER OF EQUATIONS:  131049
        NUMBER OF RHS:        1
        NUMBER OF FLOPS:      5.129e+10
        SOLVER ELAPSED TIME:  544ms

               CONVERGENCE CHECKS FOR EQUILIBRIUM ITERATION     1


 AVERAGE FORCE                       1.09       TIME AVG. FORCE       0.564    
 LARGEST SCALED RESIDUAL FORCE     -2.232E-06   AT NODE       2811   DOF  3
   INSTANCE: CHD2                                                                            
  CORRESPONDING RESIDUAL FORCE     -2.232E-06
 LARGEST INCREMENT OF DISP.         8.950E-06   AT NODE         25   DOF  2
   INSTANCE: CHD2                                                                            
 LARGEST CORRECTION TO DISP.        6.916E-11   AT NODE        239   DOF  2
   INSTANCE: CHD2                                                                            
          THE FORCE     EQUILIBRIUM EQUATIONS HAVE CONVERGED

 ITERATION SUMMARY FOR THE INCREMENT:   1 TOTAL ITERATIONS, OF WHICH
   0 ARE SEVERE DISCONTINUITY ITERATIONS AND  1 ARE EQUILIBRIUM ITERATIONS.

 TIME INCREMENT COMPLETED   5.00    ,  FRACTION OF STEP COMPLETED  0.120    
 STEP TIME COMPLETED        120.    ,  TOTAL TIME COMPLETED         120.    


  INCREMENT    25 STARTS. ATTEMPT NUMBER  1, TIME INCREMENT   5.00    
 
	SYMMETRIC NEW DIRECT SPARSE SOLVER RUNNING ON
 	1 HOST x 1 MPI RANK PER HOST x 8 THREADS PER RANK
        NUMBER OF EQUATIONS:  131049
        NUMBER OF RHS:        1
        NUMBER OF FLOPS:      5.129e+10
        SOLVER ELAPSED TIME:  548ms

               CONVERGENCE CHECKS FOR EQUILIBRIUM ITERATION     1


 AVERAGE FORCE                       1.13       TIME AVG. FORCE       0.587    
 LARGEST SCALED RESIDUAL FORCE     -2.324E-06   AT NODE       2811   DOF  3
   INSTANCE: CHD2                                                                            
  CORRESPONDING RESIDUAL FORCE     -2.324E-06
 LARGEST INCREMENT OF DISP.         8.950E-06   AT NODE         25   DOF  2
   INSTANCE: CHD2                                                                            
 LARGEST CORRECTION TO DISP.        6.915E-11   AT NODE        239   DOF  2
   INSTANCE: CHD2                                                                            
          THE FORCE     EQUILIBRIUM EQUATIONS HAVE CONVERGED

 ITERATION SUMMARY FOR THE INCREMENT:   1 TOTAL ITERATIONS, OF WHICH
   0 ARE SEVERE DISCONTINUITY ITERATIONS AND  1 ARE EQUILIBRIUM ITERATIONS.

 TIME INCREMENT COMPLETED   5.00    ,  FRACTION OF STEP COMPLETED  0.125    
 STEP TIME COMPLETED        125.    ,  TOTAL TIME COMPLETED         125.    


  INCREMENT    26 STARTS. ATTEMPT NUMBER  1, TIME INCREMENT   5.00    
 
	SYMMETRIC NEW DIRECT SPARSE SOLVER RUNNING ON
 	1 HOST x 1 MPI RANK PER HOST x 8 THREADS PER RANK
        NUMBER OF EQUATIONS:  131049
        NUMBER OF RHS:        1
        NUMBER OF FLOPS:      5.129e+10
        SOLVER ELAPSED TIME:  559ms

               CONVERGENCE CHECKS FOR EQUILIBRIUM ITERATION     1


 AVERAGE FORCE                       1.18       TIME AVG. FORCE       0.610    
 LARGEST SCALED RESIDUAL FORCE     -2.416E-06   AT NODE       2811   DOF  3
   INSTANCE: CHD2                                                                            
  CORRESPONDING RESIDUAL FORCE     -2.416E-06
 LARGEST INCREMENT OF DISP.         8.950E-06   AT NODE         25   DOF  2
   INSTANCE: CHD2                                                                            
 LARGEST CORRECTION TO DISP.        6.914E-11   AT NODE        239   DOF  2
   INSTANCE: CHD2                                                                            
          THE FORCE     EQUILIBRIUM EQUATIONS HAVE CONVERGED

 ITERATION SUMMARY FOR THE INCREMENT:   1 TOTAL ITERATIONS, OF WHICH
   0 ARE SEVERE DISCONTINUITY ITERATIONS AND  1 ARE EQUILIBRIUM ITERATIONS.

 TIME INCREMENT COMPLETED   5.00    ,  FRACTION OF STEP COMPLETED  0.130    
 STEP TIME COMPLETED        130.    ,  TOTAL TIME COMPLETED         130.    


  INCREMENT    27 STARTS. ATTEMPT NUMBER  1, TIME INCREMENT   5.00    
 
	SYMMETRIC NEW DIRECT SPARSE SOLVER RUNNING ON
 	1 HOST x 1 MPI RANK PER HOST x 8 THREADS PER RANK
        NUMBER OF EQUATIONS:  131049
        NUMBER OF RHS:        1
        NUMBER OF FLOPS:      5.129e+10
        SOLVER ELAPSED TIME:  531ms

               CONVERGENCE CHECKS FOR EQUILIBRIUM ITERATION     1


 AVERAGE FORCE                       1.22       TIME AVG. FORCE       0.632    
 LARGEST SCALED RESIDUAL FORCE     -2.508E-06   AT NODE       2811   DOF  3
   INSTANCE: CHD2                                                                            
  CORRESPONDING RESIDUAL FORCE     -2.508E-06
 LARGEST INCREMENT OF DISP.         8.950E-06   AT NODE         25   DOF  2
   INSTANCE: CHD2                                                                            
 LARGEST CORRECTION TO DISP.        6.913E-11   AT NODE        239   DOF  2
   INSTANCE: CHD2                                                                            
          THE FORCE     EQUILIBRIUM EQUATIONS HAVE CONVERGED

 ITERATION SUMMARY FOR THE INCREMENT:   1 TOTAL ITERATIONS, OF WHICH
   0 ARE SEVERE DISCONTINUITY ITERATIONS AND  1 ARE EQUILIBRIUM ITERATIONS.

 TIME INCREMENT COMPLETED   5.00    ,  FRACTION OF STEP COMPLETED  0.135    
 STEP TIME COMPLETED        135.    ,  TOTAL TIME COMPLETED         135.    


  INCREMENT    28 STARTS. ATTEMPT NUMBER  1, TIME INCREMENT   5.00    
 
	SYMMETRIC NEW DIRECT SPARSE SOLVER RUNNING ON
 	1 HOST x 1 MPI RANK PER HOST x 8 THREADS PER RANK
        NUMBER OF EQUATIONS:  131049
        NUMBER OF RHS:        1
        NUMBER OF FLOPS:      5.129e+10
        SOLVER ELAPSED TIME:  532ms

               CONVERGENCE CHECKS FOR EQUILIBRIUM ITERATION     1


 AVERAGE FORCE                       1.27       TIME AVG. FORCE       0.655    
 LARGEST SCALED RESIDUAL FORCE     -2.601E-06   AT NODE       2811   DOF  3
   INSTANCE: CHD2                                                                            
  CORRESPONDING RESIDUAL FORCE     -2.601E-06
 LARGEST INCREMENT OF DISP.         8.950E-06   AT NODE         25   DOF  2
   INSTANCE: CHD2                                                                            
 LARGEST CORRECTION TO DISP.        6.912E-11   AT NODE        239   DOF  2
   INSTANCE: CHD2                                                                            
          THE FORCE     EQUILIBRIUM EQUATIONS HAVE CONVERGED

 ITERATION SUMMARY FOR THE INCREMENT:   1 TOTAL ITERATIONS, OF WHICH
   0 ARE SEVERE DISCONTINUITY ITERATIONS AND  1 ARE EQUILIBRIUM ITERATIONS.

 TIME INCREMENT COMPLETED   5.00    ,  FRACTION OF STEP COMPLETED  0.140    
 STEP TIME COMPLETED        140.    ,  TOTAL TIME COMPLETED         140.    


  INCREMENT    29 STARTS. ATTEMPT NUMBER  1, TIME INCREMENT   5.00    
 
	SYMMETRIC NEW DIRECT SPARSE SOLVER RUNNING ON
 	1 HOST x 1 MPI RANK PER HOST x 8 THREADS PER RANK
        NUMBER OF EQUATIONS:  131049
        NUMBER OF RHS:        1
        NUMBER OF FLOPS:      5.129e+10
        SOLVER ELAPSED TIME:  527ms

               CONVERGENCE CHECKS FOR EQUILIBRIUM ITERATION     1


 AVERAGE FORCE                       1.31       TIME AVG. FORCE       0.677    
 LARGEST SCALED RESIDUAL FORCE     -2.692E-06   AT NODE       2811   DOF  3
   INSTANCE: CHD2                                                                            
  CORRESPONDING RESIDUAL FORCE     -2.692E-06
 LARGEST INCREMENT OF DISP.         8.950E-06   AT NODE         25   DOF  2
   INSTANCE: CHD2                                                                            
 LARGEST CORRECTION TO DISP.        6.911E-11   AT NODE        239   DOF  2
   INSTANCE: CHD2                                                                            
          THE FORCE     EQUILIBRIUM EQUATIONS HAVE CONVERGED

 ITERATION SUMMARY FOR THE INCREMENT:   1 TOTAL ITERATIONS, OF WHICH
   0 ARE SEVERE DISCONTINUITY ITERATIONS AND  1 ARE EQUILIBRIUM ITERATIONS.

 TIME INCREMENT COMPLETED   5.00    ,  FRACTION OF STEP COMPLETED  0.145    
 STEP TIME COMPLETED        145.    ,  TOTAL TIME COMPLETED         145.    


  INCREMENT    30 STARTS. ATTEMPT NUMBER  1, TIME INCREMENT   5.00    
 
	SYMMETRIC NEW DIRECT SPARSE SOLVER RUNNING ON
 	1 HOST x 1 MPI RANK PER HOST x 8 THREADS PER RANK
        NUMBER OF EQUATIONS:  131049
        NUMBER OF RHS:        1
        NUMBER OF FLOPS:      5.129e+10
        SOLVER ELAPSED TIME:  546ms

               CONVERGENCE CHECKS FOR EQUILIBRIUM ITERATION     1


 AVERAGE FORCE                       1.36       TIME AVG. FORCE       0.700    
 LARGEST SCALED RESIDUAL FORCE     -2.785E-06   AT NODE       2811   DOF  3
   INSTANCE: CHD2                                                                            
  CORRESPONDING RESIDUAL FORCE     -2.785E-06
 LARGEST INCREMENT OF DISP.         8.950E-06   AT NODE         25   DOF  2
   INSTANCE: CHD2                                                                            
 LARGEST CORRECTION TO DISP.        6.910E-11   AT NODE        239   DOF  2
   INSTANCE: CHD2                                                                            
          THE FORCE     EQUILIBRIUM EQUATIONS HAVE CONVERGED

 ITERATION SUMMARY FOR THE INCREMENT:   1 TOTAL ITERATIONS, OF WHICH
   0 ARE SEVERE DISCONTINUITY ITERATIONS AND  1 ARE EQUILIBRIUM ITERATIONS.

 TIME INCREMENT COMPLETED   5.00    ,  FRACTION OF STEP COMPLETED  0.150    
 STEP TIME COMPLETED        150.    ,  TOTAL TIME COMPLETED         150.    


  INCREMENT    31 STARTS. ATTEMPT NUMBER  1, TIME INCREMENT   5.00    
 
	SYMMETRIC NEW DIRECT SPARSE SOLVER RUNNING ON
 	1 HOST x 1 MPI RANK PER HOST x 8 THREADS PER RANK
        NUMBER OF EQUATIONS:  131049
        NUMBER OF RHS:        1
        NUMBER OF FLOPS:      5.129e+10
        SOLVER ELAPSED TIME:  546ms

               CONVERGENCE CHECKS FOR EQUILIBRIUM ITERATION     1


 AVERAGE FORCE                       1.40       TIME AVG. FORCE       0.723    
 LARGEST SCALED RESIDUAL FORCE     -2.877E-06   AT NODE       2811   DOF  3
   INSTANCE: CHD2                                                                            
  CORRESPONDING RESIDUAL FORCE     -2.877E-06
 LARGEST INCREMENT OF DISP.         8.950E-06   AT NODE         25   DOF  2
   INSTANCE: CHD2                                                                            
 LARGEST CORRECTION TO DISP.        6.909E-11   AT NODE        239   DOF  2
   INSTANCE: CHD2                                                                            
          THE FORCE     EQUILIBRIUM EQUATIONS HAVE CONVERGED

 ITERATION SUMMARY FOR THE INCREMENT:   1 TOTAL ITERATIONS, OF WHICH
   0 ARE SEVERE DISCONTINUITY ITERATIONS AND  1 ARE EQUILIBRIUM ITERATIONS.

 TIME INCREMENT COMPLETED   5.00    ,  FRACTION OF STEP COMPLETED  0.155    
 STEP TIME COMPLETED        155.    ,  TOTAL TIME COMPLETED         155.    


  INCREMENT    32 STARTS. ATTEMPT NUMBER  1, TIME INCREMENT   5.00    
 
	SYMMETRIC NEW DIRECT SPARSE SOLVER RUNNING ON
 	1 HOST x 1 MPI RANK PER HOST x 8 THREADS PER RANK
        NUMBER OF EQUATIONS:  131049
        NUMBER OF RHS:        1
        NUMBER OF FLOPS:      5.129e+10
        SOLVER ELAPSED TIME:  541ms

               CONVERGENCE CHECKS FOR EQUILIBRIUM ITERATION     1


 AVERAGE FORCE                       1.45       TIME AVG. FORCE       0.745    
 LARGEST SCALED RESIDUAL FORCE     -2.969E-06   AT NODE       2811   DOF  3
   INSTANCE: CHD2                                                                            
  CORRESPONDING RESIDUAL FORCE     -2.969E-06
 LARGEST INCREMENT OF DISP.         8.950E-06   AT NODE         25   DOF  2
   INSTANCE: CHD2                                                                            
 LARGEST CORRECTION TO DISP.        6.908E-11   AT NODE        239   DOF  2
   INSTANCE: CHD2                                                                            
          THE FORCE     EQUILIBRIUM EQUATIONS HAVE CONVERGED

 ITERATION SUMMARY FOR THE INCREMENT:   1 TOTAL ITERATIONS, OF WHICH
   0 ARE SEVERE DISCONTINUITY ITERATIONS AND  1 ARE EQUILIBRIUM ITERATIONS.

 TIME INCREMENT COMPLETED   5.00    ,  FRACTION OF STEP COMPLETED  0.160    
 STEP TIME COMPLETED        160.    ,  TOTAL TIME COMPLETED         160.    


  INCREMENT    33 STARTS. ATTEMPT NUMBER  1, TIME INCREMENT   5.00    
 
	SYMMETRIC NEW DIRECT SPARSE SOLVER RUNNING ON
 	1 HOST x 1 MPI RANK PER HOST x 8 THREADS PER RANK
        NUMBER OF EQUATIONS:  131049
        NUMBER OF RHS:        1
        NUMBER OF FLOPS:      5.129e+10
        SOLVER ELAPSED TIME:  528ms

               CONVERGENCE CHECKS FOR EQUILIBRIUM ITERATION     1


 AVERAGE FORCE                       1.49       TIME AVG. FORCE       0.768    
 LARGEST SCALED RESIDUAL FORCE     -3.061E-06   AT NODE       2811   DOF  3
   INSTANCE: CHD2                                                                            
  CORRESPONDING RESIDUAL FORCE     -3.061E-06
 LARGEST INCREMENT OF DISP.         8.950E-06   AT NODE         25   DOF  2
   INSTANCE: CHD2                                                                            
 LARGEST CORRECTION TO DISP.        6.907E-11   AT NODE        239   DOF  2
   INSTANCE: CHD2                                                                            
          THE FORCE     EQUILIBRIUM EQUATIONS HAVE CONVERGED

 ITERATION SUMMARY FOR THE INCREMENT:   1 TOTAL ITERATIONS, OF WHICH
   0 ARE SEVERE DISCONTINUITY ITERATIONS AND  1 ARE EQUILIBRIUM ITERATIONS.

 TIME INCREMENT COMPLETED   5.00    ,  FRACTION OF STEP COMPLETED  0.165    
 STEP TIME COMPLETED        165.    ,  TOTAL TIME COMPLETED         165.    


  INCREMENT    34 STARTS. ATTEMPT NUMBER  1, TIME INCREMENT   5.00    
 
	SYMMETRIC NEW DIRECT SPARSE SOLVER RUNNING ON
 	1 HOST x 1 MPI RANK PER HOST x 8 THREADS PER RANK
        NUMBER OF EQUATIONS:  131049
        NUMBER OF RHS:        1
        NUMBER OF FLOPS:      5.129e+10
        SOLVER ELAPSED TIME:  412ms

               CONVERGENCE CHECKS FOR EQUILIBRIUM ITERATION     1


 AVERAGE FORCE                       1.54       TIME AVG. FORCE       0.790    
 LARGEST SCALED RESIDUAL FORCE     -3.153E-06   AT NODE       2811   DOF  3
   INSTANCE: CHD2                                                                            
  CORRESPONDING RESIDUAL FORCE     -3.153E-06
 LARGEST INCREMENT OF DISP.         8.950E-06   AT NODE         25   DOF  2
   INSTANCE: CHD2                                                                            
 LARGEST CORRECTION TO DISP.        6.906E-11   AT NODE        239   DOF  2
   INSTANCE: CHD2                                                                            
          THE FORCE     EQUILIBRIUM EQUATIONS HAVE CONVERGED

 ITERATION SUMMARY FOR THE INCREMENT:   1 TOTAL ITERATIONS, OF WHICH
   0 ARE SEVERE DISCONTINUITY ITERATIONS AND  1 ARE EQUILIBRIUM ITERATIONS.

 TIME INCREMENT COMPLETED   5.00    ,  FRACTION OF STEP COMPLETED  0.170    
 STEP TIME COMPLETED        170.    ,  TOTAL TIME COMPLETED         170.    


  INCREMENT    35 STARTS. ATTEMPT NUMBER  1, TIME INCREMENT   5.00    
 
	SYMMETRIC NEW DIRECT SPARSE SOLVER RUNNING ON
 	1 HOST x 1 MPI RANK PER HOST x 8 THREADS PER RANK
        NUMBER OF EQUATIONS:  131049
        NUMBER OF RHS:        1
        NUMBER OF FLOPS:      5.129e+10
        SOLVER ELAPSED TIME:  460ms

               CONVERGENCE CHECKS FOR EQUILIBRIUM ITERATION     1


 AVERAGE FORCE                       1.58       TIME AVG. FORCE       0.813    
 LARGEST SCALED RESIDUAL FORCE     -3.245E-06   AT NODE       2811   DOF  3
   INSTANCE: CHD2                                                                            
  CORRESPONDING RESIDUAL FORCE     -3.245E-06
 LARGEST INCREMENT OF DISP.         8.950E-06   AT NODE         25   DOF  2
   INSTANCE: CHD2                                                                            
 LARGEST CORRECTION TO DISP.        6.905E-11   AT NODE        239   DOF  2
   INSTANCE: CHD2                                                                            
          THE FORCE     EQUILIBRIUM EQUATIONS HAVE CONVERGED

 ITERATION SUMMARY FOR THE INCREMENT:   1 TOTAL ITERATIONS, OF WHICH
   0 ARE SEVERE DISCONTINUITY ITERATIONS AND  1 ARE EQUILIBRIUM ITERATIONS.

 TIME INCREMENT COMPLETED   5.00    ,  FRACTION OF STEP COMPLETED  0.175    
 STEP TIME COMPLETED        175.    ,  TOTAL TIME COMPLETED         175.    


  INCREMENT    36 STARTS. ATTEMPT NUMBER  1, TIME INCREMENT   5.00    
 
	SYMMETRIC NEW DIRECT SPARSE SOLVER RUNNING ON
 	1 HOST x 1 MPI RANK PER HOST x 8 THREADS PER RANK
        NUMBER OF EQUATIONS:  131049
        NUMBER OF RHS:        1
        NUMBER OF FLOPS:      5.129e+10
        SOLVER ELAPSED TIME:  376ms

               CONVERGENCE CHECKS FOR EQUILIBRIUM ITERATION     1


 AVERAGE FORCE                       1.63       TIME AVG. FORCE       0.836    
 LARGEST SCALED RESIDUAL FORCE     -3.674E-04   AT NODE      10093   DOF  2
   INSTANCE: CHD2                                                                            
  CORRESPONDING RESIDUAL FORCE     -3.674E-04
 LARGEST INCREMENT OF DISP.         8.950E-06   AT NODE         25   DOF  2
   INSTANCE: CHD2                                                                            
 LARGEST CORRECTION TO DISP.        3.422E-09   AT NODE       1555   DOF  2
   INSTANCE: CHD2                                                                            
          THE FORCE     EQUILIBRIUM EQUATIONS HAVE CONVERGED

 ITERATION SUMMARY FOR THE INCREMENT:   1 TOTAL ITERATIONS, OF WHICH
   0 ARE SEVERE DISCONTINUITY ITERATIONS AND  1 ARE EQUILIBRIUM ITERATIONS.

 TIME INCREMENT COMPLETED   5.00    ,  FRACTION OF STEP COMPLETED  0.180    
 STEP TIME COMPLETED        180.    ,  TOTAL TIME COMPLETED         180.    


  INCREMENT    37 STARTS. ATTEMPT NUMBER  1, TIME INCREMENT   5.00    
 
	SYMMETRIC NEW DIRECT SPARSE SOLVER RUNNING ON
 	1 HOST x 1 MPI RANK PER HOST x 8 THREADS PER RANK
        NUMBER OF EQUATIONS:  131049
        NUMBER OF RHS:        1
        NUMBER OF FLOPS:      5.129e+10
        SOLVER ELAPSED TIME:  374ms

               CONVERGENCE CHECKS FOR EQUILIBRIUM ITERATION     1


 AVERAGE FORCE                       1.67       TIME AVG. FORCE       0.858    
 LARGEST SCALED RESIDUAL FORCE      1.207E-03   AT NODE      15788   DOF  2
   INSTANCE: CHD2                                                                            
  CORRESPONDING RESIDUAL FORCE      1.207E-03
 LARGEST INCREMENT OF DISP.         8.950E-06   AT NODE         25   DOF  2
   INSTANCE: CHD2                                                                            
 LARGEST CORRECTION TO DISP.        6.204E-09   AT NODE      15787   DOF  2
   INSTANCE: CHD2                                                                            
          THE FORCE     EQUILIBRIUM EQUATIONS HAVE CONVERGED

 ITERATION SUMMARY FOR THE INCREMENT:   1 TOTAL ITERATIONS, OF WHICH
   0 ARE SEVERE DISCONTINUITY ITERATIONS AND  1 ARE EQUILIBRIUM ITERATIONS.

 TIME INCREMENT COMPLETED   5.00    ,  FRACTION OF STEP COMPLETED  0.185    
 STEP TIME COMPLETED        185.    ,  TOTAL TIME COMPLETED         185.    


  INCREMENT    38 STARTS. ATTEMPT NUMBER  1, TIME INCREMENT   5.00    
 
	SYMMETRIC NEW DIRECT SPARSE SOLVER RUNNING ON
 	1 HOST x 1 MPI RANK PER HOST x 8 THREADS PER RANK
        NUMBER OF EQUATIONS:  131049
        NUMBER OF RHS:        1
        NUMBER OF FLOPS:      5.129e+10
        SOLVER ELAPSED TIME:  419ms

               CONVERGENCE CHECKS FOR EQUILIBRIUM ITERATION     1


 AVERAGE FORCE                       1.72       TIME AVG. FORCE       0.881    
 LARGEST SCALED RESIDUAL FORCE     -1.627E-03   AT NODE        878   DOF  2
   INSTANCE: CHD2                                                                            
  CORRESPONDING RESIDUAL FORCE     -1.627E-03
 LARGEST INCREMENT OF DISP.         8.950E-06   AT NODE         25   DOF  2
   INSTANCE: CHD2                                                                            
 LARGEST CORRECTION TO DISP.        6.026E-09   AT NODE       1488   DOF  2
   INSTANCE: CHD2                                                                            
          THE FORCE     EQUILIBRIUM EQUATIONS HAVE CONVERGED

 ITERATION SUMMARY FOR THE INCREMENT:   1 TOTAL ITERATIONS, OF WHICH
   0 ARE SEVERE DISCONTINUITY ITERATIONS AND  1 ARE EQUILIBRIUM ITERATIONS.

 TIME INCREMENT COMPLETED   5.00    ,  FRACTION OF STEP COMPLETED  0.190    
 STEP TIME COMPLETED        190.    ,  TOTAL TIME COMPLETED         190.    


  INCREMENT    39 STARTS. ATTEMPT NUMBER  1, TIME INCREMENT   5.00    
 
	SYMMETRIC NEW DIRECT SPARSE SOLVER RUNNING ON
 	1 HOST x 1 MPI RANK PER HOST x 8 THREADS PER RANK
        NUMBER OF EQUATIONS:  131049
        NUMBER OF RHS:        1
        NUMBER OF FLOPS:      5.129e+10
        SOLVER ELAPSED TIME:  412ms

               CONVERGENCE CHECKS FOR EQUILIBRIUM ITERATION     1


 AVERAGE FORCE                       1.76       TIME AVG. FORCE       0.903    
 LARGEST SCALED RESIDUAL FORCE      1.442E-03   AT NODE      15815   DOF  2
   INSTANCE: CHD2                                                                            
  CORRESPONDING RESIDUAL FORCE      1.442E-03
 LARGEST INCREMENT OF DISP.         8.950E-06   AT NODE         25   DOF  2
   INSTANCE: CHD2                                                                            
 LARGEST CORRECTION TO DISP.        3.853E-09   AT NODE       1516   DOF  2
   INSTANCE: CHD2                                                                            
          THE FORCE     EQUILIBRIUM EQUATIONS HAVE CONVERGED

 ITERATION SUMMARY FOR THE INCREMENT:   1 TOTAL ITERATIONS, OF WHICH
   0 ARE SEVERE DISCONTINUITY ITERATIONS AND  1 ARE EQUILIBRIUM ITERATIONS.

 TIME INCREMENT COMPLETED   5.00    ,  FRACTION OF STEP COMPLETED  0.195    
 STEP TIME COMPLETED        195.    ,  TOTAL TIME COMPLETED         195.    


  INCREMENT    40 STARTS. ATTEMPT NUMBER  1, TIME INCREMENT   5.00    
 
	SYMMETRIC NEW DIRECT SPARSE SOLVER RUNNING ON
 	1 HOST x 1 MPI RANK PER HOST x 8 THREADS PER RANK
        NUMBER OF EQUATIONS:  131049
        NUMBER OF RHS:        1
        NUMBER OF FLOPS:      5.129e+10
        SOLVER ELAPSED TIME:  442ms

               CONVERGENCE CHECKS FOR EQUILIBRIUM ITERATION     1


 AVERAGE FORCE                       1.81       TIME AVG. FORCE       0.926    
 LARGEST SCALED RESIDUAL FORCE     -1.580E-03   AT NODE      10002   DOF  2
   INSTANCE: CHD2                                                                            
  CORRESPONDING RESIDUAL FORCE     -1.580E-03
 LARGEST INCREMENT OF DISP.         8.950E-06   AT NODE         25   DOF  2
   INSTANCE: CHD2                                                                            
 LARGEST CORRECTION TO DISP.        5.538E-09   AT NODE      15815   DOF  2
   INSTANCE: CHD2                                                                            
          THE FORCE     EQUILIBRIUM EQUATIONS HAVE CONVERGED

 ITERATION SUMMARY FOR THE INCREMENT:   1 TOTAL ITERATIONS, OF WHICH
   0 ARE SEVERE DISCONTINUITY ITERATIONS AND  1 ARE EQUILIBRIUM ITERATIONS.

 TIME INCREMENT COMPLETED   5.00    ,  FRACTION OF STEP COMPLETED  0.200    
 STEP TIME COMPLETED        200.    ,  TOTAL TIME COMPLETED         200.    


  INCREMENT    41 STARTS. ATTEMPT NUMBER  1, TIME INCREMENT   5.00    
 
	SYMMETRIC NEW DIRECT SPARSE SOLVER RUNNING ON
 	1 HOST x 1 MPI RANK PER HOST x 8 THREADS PER RANK
        NUMBER OF EQUATIONS:  131049
        NUMBER OF RHS:        1
        NUMBER OF FLOPS:      5.129e+10
        SOLVER ELAPSED TIME:  400ms

               CONVERGENCE CHECKS FOR EQUILIBRIUM ITERATION     1


 AVERAGE FORCE                       1.85       TIME AVG. FORCE       0.948    
 LARGEST SCALED RESIDUAL FORCE     -7.950E-04   AT NODE      25333   DOF  2
   INSTANCE: CHD2                                                                            
  CORRESPONDING RESIDUAL FORCE     -7.950E-04
 LARGEST INCREMENT OF DISP.         8.950E-06   AT NODE         25   DOF  2
   INSTANCE: CHD2                                                                            
 LARGEST CORRECTION TO DISP.       -4.707E-09   AT NODE         37   DOF  3
   INSTANCE: CHD2                                                                            
          THE FORCE     EQUILIBRIUM EQUATIONS HAVE CONVERGED

 ITERATION SUMMARY FOR THE INCREMENT:   1 TOTAL ITERATIONS, OF WHICH
   0 ARE SEVERE DISCONTINUITY ITERATIONS AND  1 ARE EQUILIBRIUM ITERATIONS.

 TIME INCREMENT COMPLETED   5.00    ,  FRACTION OF STEP COMPLETED  0.205    
 STEP TIME COMPLETED        205.    ,  TOTAL TIME COMPLETED         205.    


  INCREMENT    42 STARTS. ATTEMPT NUMBER  1, TIME INCREMENT   5.00    
 
	SYMMETRIC NEW DIRECT SPARSE SOLVER RUNNING ON
 	1 HOST x 1 MPI RANK PER HOST x 8 THREADS PER RANK
        NUMBER OF EQUATIONS:  131049
        NUMBER OF RHS:        1
        NUMBER OF FLOPS:      5.129e+10
        SOLVER ELAPSED TIME:  388ms

               CONVERGENCE CHECKS FOR EQUILIBRIUM ITERATION     1


 AVERAGE FORCE                       1.90       TIME AVG. FORCE       0.971    
 LARGEST SCALED RESIDUAL FORCE      1.050E-03   AT NODE       7351   DOF  2
   INSTANCE: CHD2                                                                            
  CORRESPONDING RESIDUAL FORCE      1.050E-03
 LARGEST INCREMENT OF DISP.         8.950E-06   AT NODE         25   DOF  2
   INSTANCE: CHD2                                                                            
 LARGEST CORRECTION TO DISP.        2.777E-09   AT NODE      30512   DOF  2
   INSTANCE: CHD2                                                                            
          THE FORCE     EQUILIBRIUM EQUATIONS HAVE CONVERGED

 ITERATION SUMMARY FOR THE INCREMENT:   1 TOTAL ITERATIONS, OF WHICH
   0 ARE SEVERE DISCONTINUITY ITERATIONS AND  1 ARE EQUILIBRIUM ITERATIONS.

 TIME INCREMENT COMPLETED   5.00    ,  FRACTION OF STEP COMPLETED  0.210    
 STEP TIME COMPLETED        210.    ,  TOTAL TIME COMPLETED         210.    


  INCREMENT    43 STARTS. ATTEMPT NUMBER  1, TIME INCREMENT   5.00    
 
	SYMMETRIC NEW DIRECT SPARSE SOLVER RUNNING ON
 	1 HOST x 1 MPI RANK PER HOST x 8 THREADS PER RANK
        NUMBER OF EQUATIONS:  131049
        NUMBER OF RHS:        1
        NUMBER OF FLOPS:      5.129e+10
        SOLVER ELAPSED TIME:  513ms

               CONVERGENCE CHECKS FOR EQUILIBRIUM ITERATION     1


 AVERAGE FORCE                       1.94       TIME AVG. FORCE       0.993    
 LARGEST SCALED RESIDUAL FORCE     -2.300E-03   AT NODE      28026   DOF  2
   INSTANCE: CHD2                                                                            
  CORRESPONDING RESIDUAL FORCE     -2.300E-03
 LARGEST INCREMENT OF DISP.         8.950E-06   AT NODE         25   DOF  2
   INSTANCE: CHD2                                                                            
 LARGEST CORRECTION TO DISP.        4.788E-09   AT NODE       1552   DOF  2
   INSTANCE: CHD2                                                                            
          THE FORCE     EQUILIBRIUM EQUATIONS HAVE CONVERGED

 ITERATION SUMMARY FOR THE INCREMENT:   1 TOTAL ITERATIONS, OF WHICH
   0 ARE SEVERE DISCONTINUITY ITERATIONS AND  1 ARE EQUILIBRIUM ITERATIONS.

 TIME INCREMENT COMPLETED   5.00    ,  FRACTION OF STEP COMPLETED  0.215    
 STEP TIME COMPLETED        215.    ,  TOTAL TIME COMPLETED         215.    


  INCREMENT    44 STARTS. ATTEMPT NUMBER  1, TIME INCREMENT   5.00    
 
	SYMMETRIC NEW DIRECT SPARSE SOLVER RUNNING ON
 	1 HOST x 1 MPI RANK PER HOST x 8 THREADS PER RANK
        NUMBER OF EQUATIONS:  131049
        NUMBER OF RHS:        1
        NUMBER OF FLOPS:      5.129e+10
        SOLVER ELAPSED TIME:  543ms

               CONVERGENCE CHECKS FOR EQUILIBRIUM ITERATION     1


 AVERAGE FORCE                       1.98       TIME AVG. FORCE        1.02    
 LARGEST SCALED RESIDUAL FORCE     -7.516E-04   AT NODE      10003   DOF  2
   INSTANCE: CHD2                                                                            
  CORRESPONDING RESIDUAL FORCE     -7.516E-04
 LARGEST INCREMENT OF DISP.         8.950E-06   AT NODE         25   DOF  2
   INSTANCE: CHD2                                                                            
 LARGEST CORRECTION TO DISP.       -4.591E-09   AT NODE         37   DOF  3
   INSTANCE: CHD2                                                                            
          THE FORCE     EQUILIBRIUM EQUATIONS HAVE CONVERGED

 ITERATION SUMMARY FOR THE INCREMENT:   1 TOTAL ITERATIONS, OF WHICH
   0 ARE SEVERE DISCONTINUITY ITERATIONS AND  1 ARE EQUILIBRIUM ITERATIONS.

 TIME INCREMENT COMPLETED   5.00    ,  FRACTION OF STEP COMPLETED  0.220    
 STEP TIME COMPLETED        220.    ,  TOTAL TIME COMPLETED         220.    


  INCREMENT    45 STARTS. ATTEMPT NUMBER  1, TIME INCREMENT   5.00    
 
	SYMMETRIC NEW DIRECT SPARSE SOLVER RUNNING ON
 	1 HOST x 1 MPI RANK PER HOST x 8 THREADS PER RANK
        NUMBER OF EQUATIONS:  131049
        NUMBER OF RHS:        1
        NUMBER OF FLOPS:      5.129e+10
        SOLVER ELAPSED TIME:  542ms

               CONVERGENCE CHECKS FOR EQUILIBRIUM ITERATION     1


 AVERAGE FORCE                       2.03       TIME AVG. FORCE        1.04    
 LARGEST SCALED RESIDUAL FORCE      1.050E-03   AT NODE      11078   DOF  2
   INSTANCE: CHD2                                                                            
  CORRESPONDING RESIDUAL FORCE      1.050E-03
 LARGEST INCREMENT OF DISP.         8.950E-06   AT NODE         25   DOF  2
   INSTANCE: CHD2                                                                            
 LARGEST CORRECTION TO DISP.        3.987E-09   AT NODE      33174   DOF  2
   INSTANCE: CHD2                                                                            
          THE FORCE     EQUILIBRIUM EQUATIONS HAVE CONVERGED

 ITERATION SUMMARY FOR THE INCREMENT:   1 TOTAL ITERATIONS, OF WHICH
   0 ARE SEVERE DISCONTINUITY ITERATIONS AND  1 ARE EQUILIBRIUM ITERATIONS.

 TIME INCREMENT COMPLETED   5.00    ,  FRACTION OF STEP COMPLETED  0.225    
 STEP TIME COMPLETED        225.    ,  TOTAL TIME COMPLETED         225.    


  INCREMENT    46 STARTS. ATTEMPT NUMBER  1, TIME INCREMENT   5.00    
 
	SYMMETRIC NEW DIRECT SPARSE SOLVER RUNNING ON
 	1 HOST x 1 MPI RANK PER HOST x 8 THREADS PER RANK
        NUMBER OF EQUATIONS:  131049
        NUMBER OF RHS:        1
        NUMBER OF FLOPS:      5.129e+10
        SOLVER ELAPSED TIME:  545ms

               CONVERGENCE CHECKS FOR EQUILIBRIUM ITERATION     1


 AVERAGE FORCE                       2.07       TIME AVG. FORCE        1.06    
 LARGEST SCALED RESIDUAL FORCE     -8.438E-04   AT NODE      25505   DOF  2
   INSTANCE: CHD2                                                                            
  CORRESPONDING RESIDUAL FORCE     -8.438E-04
 LARGEST INCREMENT OF DISP.         8.950E-06   AT NODE         25   DOF  2
   INSTANCE: CHD2                                                                            
 LARGEST CORRECTION TO DISP.       -4.422E-09   AT NODE       4688   DOF  3
   INSTANCE: CHD2                                                                            
          THE FORCE     EQUILIBRIUM EQUATIONS HAVE CONVERGED

 ITERATION SUMMARY FOR THE INCREMENT:   1 TOTAL ITERATIONS, OF WHICH
   0 ARE SEVERE DISCONTINUITY ITERATIONS AND  1 ARE EQUILIBRIUM ITERATIONS.

 TIME INCREMENT COMPLETED   5.00    ,  FRACTION OF STEP COMPLETED  0.230    
 STEP TIME COMPLETED        230.    ,  TOTAL TIME COMPLETED         230.    


  INCREMENT    47 STARTS. ATTEMPT NUMBER  1, TIME INCREMENT   5.00    
 
	SYMMETRIC NEW DIRECT SPARSE SOLVER RUNNING ON
 	1 HOST x 1 MPI RANK PER HOST x 8 THREADS PER RANK
        NUMBER OF EQUATIONS:  131049
        NUMBER OF RHS:        1
        NUMBER OF FLOPS:      5.129e+10
        SOLVER ELAPSED TIME:  539ms

               CONVERGENCE CHECKS FOR EQUILIBRIUM ITERATION     1


 AVERAGE FORCE                       2.12       TIME AVG. FORCE        1.08    
 LARGEST SCALED RESIDUAL FORCE     -7.271E-04   AT NODE      38326   DOF  2
   INSTANCE: CHD2                                                                            
  CORRESPONDING RESIDUAL FORCE     -7.271E-04
 LARGEST INCREMENT OF DISP.         8.950E-06   AT NODE         25   DOF  2
   INSTANCE: CHD2                                                                            
 LARGEST CORRECTION TO DISP.       -4.119E-09   AT NODE       7321   DOF  2
   INSTANCE: CHD2                                                                            
          THE FORCE     EQUILIBRIUM EQUATIONS HAVE CONVERGED

 ITERATION SUMMARY FOR THE INCREMENT:   1 TOTAL ITERATIONS, OF WHICH
   0 ARE SEVERE DISCONTINUITY ITERATIONS AND  1 ARE EQUILIBRIUM ITERATIONS.

 TIME INCREMENT COMPLETED   5.00    ,  FRACTION OF STEP COMPLETED  0.235    
 STEP TIME COMPLETED        235.    ,  TOTAL TIME COMPLETED         235.    


  INCREMENT    48 STARTS. ATTEMPT NUMBER  1, TIME INCREMENT   5.00    
 
	SYMMETRIC NEW DIRECT SPARSE SOLVER RUNNING ON
 	1 HOST x 1 MPI RANK PER HOST x 8 THREADS PER RANK
        NUMBER OF EQUATIONS:  131049
        NUMBER OF RHS:        1
        NUMBER OF FLOPS:      5.129e+10
        SOLVER ELAPSED TIME:  546ms

               CONVERGENCE CHECKS FOR EQUILIBRIUM ITERATION     1


 AVERAGE FORCE                       2.16       TIME AVG. FORCE        1.11    
 LARGEST SCALED RESIDUAL FORCE      9.627E-04   AT NODE      30339   DOF  2
   INSTANCE: CHD2                                                                            
  CORRESPONDING RESIDUAL FORCE      9.627E-04
 LARGEST INCREMENT OF DISP.         8.950E-06   AT NODE         25   DOF  2
   INSTANCE: CHD2                                                                            
 LARGEST CORRECTION TO DISP.        2.810E-09   AT NODE      33027   DOF  2
   INSTANCE: CHD2                                                                            
          THE FORCE     EQUILIBRIUM EQUATIONS HAVE CONVERGED

 ITERATION SUMMARY FOR THE INCREMENT:   1 TOTAL ITERATIONS, OF WHICH
   0 ARE SEVERE DISCONTINUITY ITERATIONS AND  1 ARE EQUILIBRIUM ITERATIONS.

 TIME INCREMENT COMPLETED   5.00    ,  FRACTION OF STEP COMPLETED  0.240    
 STEP TIME COMPLETED        240.    ,  TOTAL TIME COMPLETED         240.    


  INCREMENT    49 STARTS. ATTEMPT NUMBER  1, TIME INCREMENT   5.00    
 
	SYMMETRIC NEW DIRECT SPARSE SOLVER RUNNING ON
 	1 HOST x 1 MPI RANK PER HOST x 8 THREADS PER RANK
        NUMBER OF EQUATIONS:  131049
        NUMBER OF RHS:        1
        NUMBER OF FLOPS:      5.129e+10
        SOLVER ELAPSED TIME:  556ms

               CONVERGENCE CHECKS FOR EQUILIBRIUM ITERATION     1


 AVERAGE FORCE                       2.21       TIME AVG. FORCE        1.13    
 LARGEST SCALED RESIDUAL FORCE     -8.785E-04   AT NODE      27232   DOF  2
   INSTANCE: CHD2                                                                            
  CORRESPONDING RESIDUAL FORCE     -8.785E-04
 LARGEST INCREMENT OF DISP.         8.950E-06   AT NODE         25   DOF  2
   INSTANCE: CHD2                                                                            
 LARGEST CORRECTION TO DISP.       -5.129E-09   AT NODE      25505   DOF  2
   INSTANCE: CHD2                                                                            
          THE FORCE     EQUILIBRIUM EQUATIONS HAVE CONVERGED

 ITERATION SUMMARY FOR THE INCREMENT:   1 TOTAL ITERATIONS, OF WHICH
   0 ARE SEVERE DISCONTINUITY ITERATIONS AND  1 ARE EQUILIBRIUM ITERATIONS.

 TIME INCREMENT COMPLETED   5.00    ,  FRACTION OF STEP COMPLETED  0.245    
 STEP TIME COMPLETED        245.    ,  TOTAL TIME COMPLETED         245.    


  INCREMENT    50 STARTS. ATTEMPT NUMBER  1, TIME INCREMENT   5.00    
 
	SYMMETRIC NEW DIRECT SPARSE SOLVER RUNNING ON
 	1 HOST x 1 MPI RANK PER HOST x 8 THREADS PER RANK
        NUMBER OF EQUATIONS:  131049
        NUMBER OF RHS:        1
        NUMBER OF FLOPS:      5.129e+10
        SOLVER ELAPSED TIME:  542ms

               CONVERGENCE CHECKS FOR EQUILIBRIUM ITERATION     1


 AVERAGE FORCE                       2.25       TIME AVG. FORCE        1.15    
 LARGEST SCALED RESIDUAL FORCE     -1.090E-03   AT NODE      21909   DOF  2
   INSTANCE: CHD2                                                                            
  CORRESPONDING RESIDUAL FORCE     -1.090E-03
 LARGEST INCREMENT OF DISP.         8.950E-06   AT NODE         25   DOF  2
   INSTANCE: CHD2                                                                            
 LARGEST CORRECTION TO DISP.       -5.044E-09   AT NODE      10177   DOF  3
   INSTANCE: CHD2                                                                            
          THE FORCE     EQUILIBRIUM EQUATIONS HAVE CONVERGED

 ITERATION SUMMARY FOR THE INCREMENT:   1 TOTAL ITERATIONS, OF WHICH
   0 ARE SEVERE DISCONTINUITY ITERATIONS AND  1 ARE EQUILIBRIUM ITERATIONS.

 TIME INCREMENT COMPLETED   5.00    ,  FRACTION OF STEP COMPLETED  0.250    
 STEP TIME COMPLETED        250.    ,  TOTAL TIME COMPLETED         250.    


  INCREMENT    51 STARTS. ATTEMPT NUMBER  1, TIME INCREMENT   5.00    
 
	SYMMETRIC NEW DIRECT SPARSE SOLVER RUNNING ON
 	1 HOST x 1 MPI RANK PER HOST x 8 THREADS PER RANK
        NUMBER OF EQUATIONS:  131049
        NUMBER OF RHS:        1
        NUMBER OF FLOPS:      5.129e+10
        SOLVER ELAPSED TIME:  532ms

               CONVERGENCE CHECKS FOR EQUILIBRIUM ITERATION     1


 AVERAGE FORCE                       2.29       TIME AVG. FORCE        1.17    
 LARGEST SCALED RESIDUAL FORCE     -1.726E-03   AT NODE      28028   DOF  2
   INSTANCE: CHD2                                                                            
  CORRESPONDING RESIDUAL FORCE     -1.726E-03
 LARGEST INCREMENT OF DISP.         8.950E-06   AT NODE         25   DOF  2
   INSTANCE: CHD2                                                                            
 LARGEST CORRECTION TO DISP.        2.943E-09   AT NODE      13561   DOF  2
   INSTANCE: CHD2                                                                            
          THE FORCE     EQUILIBRIUM EQUATIONS HAVE CONVERGED

 ITERATION SUMMARY FOR THE INCREMENT:   1 TOTAL ITERATIONS, OF WHICH
   0 ARE SEVERE DISCONTINUITY ITERATIONS AND  1 ARE EQUILIBRIUM ITERATIONS.

 TIME INCREMENT COMPLETED   5.00    ,  FRACTION OF STEP COMPLETED  0.255    
 STEP TIME COMPLETED        255.    ,  TOTAL TIME COMPLETED         255.    


  INCREMENT    52 STARTS. ATTEMPT NUMBER  1, TIME INCREMENT   5.00    
 
	SYMMETRIC NEW DIRECT SPARSE SOLVER RUNNING ON
 	1 HOST x 1 MPI RANK PER HOST x 8 THREADS PER RANK
        NUMBER OF EQUATIONS:  131049
        NUMBER OF RHS:        1
        NUMBER OF FLOPS:      5.129e+10
        SOLVER ELAPSED TIME:  615ms

               CONVERGENCE CHECKS FOR EQUILIBRIUM ITERATION     1


 AVERAGE FORCE                       2.34       TIME AVG. FORCE        1.20    
 LARGEST SCALED RESIDUAL FORCE      1.750E-03   AT NODE      11075   DOF  2
   INSTANCE: CHD2                                                                            
  CORRESPONDING RESIDUAL FORCE      1.750E-03
 LARGEST INCREMENT OF DISP.         8.950E-06   AT NODE         25   DOF  2
   INSTANCE: CHD2                                                                            
 LARGEST CORRECTION TO DISP.        4.284E-09   AT NODE      13565   DOF  2
   INSTANCE: CHD2                                                                            
          THE FORCE     EQUILIBRIUM EQUATIONS HAVE CONVERGED

 ITERATION SUMMARY FOR THE INCREMENT:   1 TOTAL ITERATIONS, OF WHICH
   0 ARE SEVERE DISCONTINUITY ITERATIONS AND  1 ARE EQUILIBRIUM ITERATIONS.

 TIME INCREMENT COMPLETED   5.00    ,  FRACTION OF STEP COMPLETED  0.260    
 STEP TIME COMPLETED        260.    ,  TOTAL TIME COMPLETED         260.    


  INCREMENT    53 STARTS. ATTEMPT NUMBER  1, TIME INCREMENT   5.00    
 
	SYMMETRIC NEW DIRECT SPARSE SOLVER RUNNING ON
 	1 HOST x 1 MPI RANK PER HOST x 8 THREADS PER RANK
        NUMBER OF EQUATIONS:  131049
        NUMBER OF RHS:        1
        NUMBER OF FLOPS:      5.129e+10
        SOLVER ELAPSED TIME:  603ms

               CONVERGENCE CHECKS FOR EQUILIBRIUM ITERATION     1


 AVERAGE FORCE                       2.38       TIME AVG. FORCE        1.22    
 LARGEST SCALED RESIDUAL FORCE      1.269E-03   AT NODE      30334   DOF  2
   INSTANCE: CHD2                                                                            
  CORRESPONDING RESIDUAL FORCE      1.269E-03
 LARGEST INCREMENT OF DISP.         8.950E-06   AT NODE         25   DOF  2
   INSTANCE: CHD2                                                                            
 LARGEST CORRECTION TO DISP.       -4.269E-09   AT NODE      10929   DOF  3
   INSTANCE: CHD2                                                                            
          THE FORCE     EQUILIBRIUM EQUATIONS HAVE CONVERGED

 ITERATION SUMMARY FOR THE INCREMENT:   1 TOTAL ITERATIONS, OF WHICH
   0 ARE SEVERE DISCONTINUITY ITERATIONS AND  1 ARE EQUILIBRIUM ITERATIONS.

 TIME INCREMENT COMPLETED   5.00    ,  FRACTION OF STEP COMPLETED  0.265    
 STEP TIME COMPLETED        265.    ,  TOTAL TIME COMPLETED         265.    


  INCREMENT    54 STARTS. ATTEMPT NUMBER  1, TIME INCREMENT   5.00    
 
	SYMMETRIC NEW DIRECT SPARSE SOLVER RUNNING ON
 	1 HOST x 1 MPI RANK PER HOST x 8 THREADS PER RANK
        NUMBER OF EQUATIONS:  131049
        NUMBER OF RHS:        1
        NUMBER OF FLOPS:      5.129e+10
        SOLVER ELAPSED TIME:  531ms

               CONVERGENCE CHECKS FOR EQUILIBRIUM ITERATION     1


 AVERAGE FORCE                       2.43       TIME AVG. FORCE        1.24    
 LARGEST SCALED RESIDUAL FORCE     -8.577E-04   AT NODE      28168   DOF  2
   INSTANCE: CHD2                                                                            
  CORRESPONDING RESIDUAL FORCE     -8.577E-04
 LARGEST INCREMENT OF DISP.         8.950E-06   AT NODE         25   DOF  2
   INSTANCE: CHD2                                                                            
 LARGEST CORRECTION TO DISP.       -4.806E-09   AT NODE      28168   DOF  2
   INSTANCE: CHD2                                                                            
          THE FORCE     EQUILIBRIUM EQUATIONS HAVE CONVERGED

 ITERATION SUMMARY FOR THE INCREMENT:   1 TOTAL ITERATIONS, OF WHICH
   0 ARE SEVERE DISCONTINUITY ITERATIONS AND  1 ARE EQUILIBRIUM ITERATIONS.

 TIME INCREMENT COMPLETED   5.00    ,  FRACTION OF STEP COMPLETED  0.270    
 STEP TIME COMPLETED        270.    ,  TOTAL TIME COMPLETED         270.    


  INCREMENT    55 STARTS. ATTEMPT NUMBER  1, TIME INCREMENT   5.00    
 
	SYMMETRIC NEW DIRECT SPARSE SOLVER RUNNING ON
 	1 HOST x 1 MPI RANK PER HOST x 8 THREADS PER RANK
        NUMBER OF EQUATIONS:  131049
        NUMBER OF RHS:        1
        NUMBER OF FLOPS:      5.129e+10
        SOLVER ELAPSED TIME:  548ms

               CONVERGENCE CHECKS FOR EQUILIBRIUM ITERATION     1


 AVERAGE FORCE                       2.47       TIME AVG. FORCE        1.26    
 LARGEST SCALED RESIDUAL FORCE     -8.230E-04   AT NODE      38320   DOF  2
   INSTANCE: CHD2                                                                            
  CORRESPONDING RESIDUAL FORCE     -8.230E-04
 LARGEST INCREMENT OF DISP.         8.950E-06   AT NODE         25   DOF  2
   INSTANCE: CHD2                                                                            
 LARGEST CORRECTION TO DISP.        4.761E-09   AT NODE      13803   DOF  2
   INSTANCE: CHD2                                                                            
          THE FORCE     EQUILIBRIUM EQUATIONS HAVE CONVERGED

 ITERATION SUMMARY FOR THE INCREMENT:   1 TOTAL ITERATIONS, OF WHICH
   0 ARE SEVERE DISCONTINUITY ITERATIONS AND  1 ARE EQUILIBRIUM ITERATIONS.

 TIME INCREMENT COMPLETED   5.00    ,  FRACTION OF STEP COMPLETED  0.275    
 STEP TIME COMPLETED        275.    ,  TOTAL TIME COMPLETED         275.    


  INCREMENT    56 STARTS. ATTEMPT NUMBER  1, TIME INCREMENT   5.00    
 
	SYMMETRIC NEW DIRECT SPARSE SOLVER RUNNING ON
 	1 HOST x 1 MPI RANK PER HOST x 8 THREADS PER RANK
        NUMBER OF EQUATIONS:  131049
        NUMBER OF RHS:        1
        NUMBER OF FLOPS:      5.129e+10
        SOLVER ELAPSED TIME:  570ms

               CONVERGENCE CHECKS FOR EQUILIBRIUM ITERATION     1


 AVERAGE FORCE                       2.51       TIME AVG. FORCE        1.28    
 LARGEST SCALED RESIDUAL FORCE     -1.283E-03   AT NODE      20198   DOF  2
   INSTANCE: CHD2                                                                            
  CORRESPONDING RESIDUAL FORCE     -1.283E-03
 LARGEST INCREMENT OF DISP.         8.950E-06   AT NODE         25   DOF  2
   INSTANCE: CHD2                                                                            
 LARGEST CORRECTION TO DISP.        3.467E-09   AT NODE      35900   DOF  2
   INSTANCE: CHD2                                                                            
          THE FORCE     EQUILIBRIUM EQUATIONS HAVE CONVERGED

 ITERATION SUMMARY FOR THE INCREMENT:   1 TOTAL ITERATIONS, OF WHICH
   0 ARE SEVERE DISCONTINUITY ITERATIONS AND  1 ARE EQUILIBRIUM ITERATIONS.

 TIME INCREMENT COMPLETED   5.00    ,  FRACTION OF STEP COMPLETED  0.280    
 STEP TIME COMPLETED        280.    ,  TOTAL TIME COMPLETED         280.    


  INCREMENT    57 STARTS. ATTEMPT NUMBER  1, TIME INCREMENT   5.00    
 
	SYMMETRIC NEW DIRECT SPARSE SOLVER RUNNING ON
 	1 HOST x 1 MPI RANK PER HOST x 8 THREADS PER RANK
        NUMBER OF EQUATIONS:  131049
        NUMBER OF RHS:        1
        NUMBER OF FLOPS:      5.129e+10
        SOLVER ELAPSED TIME:  599ms

               CONVERGENCE CHECKS FOR EQUILIBRIUM ITERATION     1


 AVERAGE FORCE                       2.56       TIME AVG. FORCE        1.31    
 LARGEST SCALED RESIDUAL FORCE      1.505E-03   AT NODE      30367   DOF  2
   INSTANCE: CHD2                                                                            
  CORRESPONDING RESIDUAL FORCE      1.505E-03
 LARGEST INCREMENT OF DISP.         8.950E-06   AT NODE         25   DOF  2
   INSTANCE: CHD2                                                                            
 LARGEST CORRECTION TO DISP.        4.676E-09   AT NODE      13559   DOF  2
   INSTANCE: CHD2                                                                            
          THE FORCE     EQUILIBRIUM EQUATIONS HAVE CONVERGED

 ITERATION SUMMARY FOR THE INCREMENT:   1 TOTAL ITERATIONS, OF WHICH
   0 ARE SEVERE DISCONTINUITY ITERATIONS AND  1 ARE EQUILIBRIUM ITERATIONS.

 TIME INCREMENT COMPLETED   5.00    ,  FRACTION OF STEP COMPLETED  0.285    
 STEP TIME COMPLETED        285.    ,  TOTAL TIME COMPLETED         285.    


  INCREMENT    58 STARTS. ATTEMPT NUMBER  1, TIME INCREMENT   5.00    
 
	SYMMETRIC NEW DIRECT SPARSE SOLVER RUNNING ON
 	1 HOST x 1 MPI RANK PER HOST x 8 THREADS PER RANK
        NUMBER OF EQUATIONS:  131049
        NUMBER OF RHS:        1
        NUMBER OF FLOPS:      5.129e+10
        SOLVER ELAPSED TIME:  522ms

               CONVERGENCE CHECKS FOR EQUILIBRIUM ITERATION     1


 AVERAGE FORCE                       2.60       TIME AVG. FORCE        1.33    
 LARGEST SCALED RESIDUAL FORCE      2.380E-03   AT NODE      30337   DOF  2
   INSTANCE: CHD2                                                                            
  CORRESPONDING RESIDUAL FORCE      2.380E-03
 LARGEST INCREMENT OF DISP.         8.950E-06   AT NODE         25   DOF  2
   INSTANCE: CHD2                                                                            
 LARGEST CORRECTION TO DISP.        4.270E-09   AT NODE      38532   DOF  2
   INSTANCE: CHD2                                                                            
          THE FORCE     EQUILIBRIUM EQUATIONS HAVE CONVERGED

 ITERATION SUMMARY FOR THE INCREMENT:   1 TOTAL ITERATIONS, OF WHICH
   0 ARE SEVERE DISCONTINUITY ITERATIONS AND  1 ARE EQUILIBRIUM ITERATIONS.

 TIME INCREMENT COMPLETED   5.00    ,  FRACTION OF STEP COMPLETED  0.290    
 STEP TIME COMPLETED        290.    ,  TOTAL TIME COMPLETED         290.    


  INCREMENT    59 STARTS. ATTEMPT NUMBER  1, TIME INCREMENT   5.00    
 
	SYMMETRIC NEW DIRECT SPARSE SOLVER RUNNING ON
 	1 HOST x 1 MPI RANK PER HOST x 8 THREADS PER RANK
        NUMBER OF EQUATIONS:  131049
        NUMBER OF RHS:        1
        NUMBER OF FLOPS:      5.129e+10
        SOLVER ELAPSED TIME:  547ms

               CONVERGENCE CHECKS FOR EQUILIBRIUM ITERATION     1


 AVERAGE FORCE                       2.64       TIME AVG. FORCE        1.35    
 LARGEST SCALED RESIDUAL FORCE      1.589E-03   AT NODE      30327   DOF  2
   INSTANCE: CHD2                                                                            
  CORRESPONDING RESIDUAL FORCE      1.589E-03
 LARGEST INCREMENT OF DISP.         8.950E-06   AT NODE         25   DOF  2
   INSTANCE: CHD2                                                                            
 LARGEST CORRECTION TO DISP.       -5.024E-09   AT NODE       9838   DOF  3
   INSTANCE: CHD2                                                                            
          THE FORCE     EQUILIBRIUM EQUATIONS HAVE CONVERGED

 ITERATION SUMMARY FOR THE INCREMENT:   1 TOTAL ITERATIONS, OF WHICH
   0 ARE SEVERE DISCONTINUITY ITERATIONS AND  1 ARE EQUILIBRIUM ITERATIONS.

 TIME INCREMENT COMPLETED   5.00    ,  FRACTION OF STEP COMPLETED  0.295    
 STEP TIME COMPLETED        295.    ,  TOTAL TIME COMPLETED         295.    


  INCREMENT    60 STARTS. ATTEMPT NUMBER  1, TIME INCREMENT   5.00    
 
	SYMMETRIC NEW DIRECT SPARSE SOLVER RUNNING ON
 	1 HOST x 1 MPI RANK PER HOST x 8 THREADS PER RANK
        NUMBER OF EQUATIONS:  131049
        NUMBER OF RHS:        1
        NUMBER OF FLOPS:      5.129e+10
        SOLVER ELAPSED TIME:  508ms

               CONVERGENCE CHECKS FOR EQUILIBRIUM ITERATION     1


 AVERAGE FORCE                       2.68       TIME AVG. FORCE        1.37    
 LARGEST SCALED RESIDUAL FORCE     -1.214E-03   AT NODE      19999   DOF  2
   INSTANCE: CHD2                                                                            
  CORRESPONDING RESIDUAL FORCE     -1.214E-03
 LARGEST INCREMENT OF DISP.         8.950E-06   AT NODE         25   DOF  2
   INSTANCE: CHD2                                                                            
 LARGEST CORRECTION TO DISP.        5.152E-09   AT NODE      13804   DOF  2
   INSTANCE: CHD2                                                                            
          THE FORCE     EQUILIBRIUM EQUATIONS HAVE CONVERGED

 ITERATION SUMMARY FOR THE INCREMENT:   1 TOTAL ITERATIONS, OF WHICH
   0 ARE SEVERE DISCONTINUITY ITERATIONS AND  1 ARE EQUILIBRIUM ITERATIONS.

 TIME INCREMENT COMPLETED   5.00    ,  FRACTION OF STEP COMPLETED  0.300    
 STEP TIME COMPLETED        300.    ,  TOTAL TIME COMPLETED         300.    


  INCREMENT    61 STARTS. ATTEMPT NUMBER  1, TIME INCREMENT   5.00    
 
	SYMMETRIC NEW DIRECT SPARSE SOLVER RUNNING ON
 	1 HOST x 1 MPI RANK PER HOST x 8 THREADS PER RANK
        NUMBER OF EQUATIONS:  131049
        NUMBER OF RHS:        1
        NUMBER OF FLOPS:      5.129e+10
        SOLVER ELAPSED TIME:  424ms

               CONVERGENCE CHECKS FOR EQUILIBRIUM ITERATION     1


 AVERAGE FORCE                       2.73       TIME AVG. FORCE        1.40    
 LARGEST SCALED RESIDUAL FORCE      2.694E-03   AT NODE      30331   DOF  2
   INSTANCE: CHD2                                                                            
  CORRESPONDING RESIDUAL FORCE      2.694E-03
 LARGEST INCREMENT OF DISP.         8.950E-06   AT NODE         25   DOF  2
   INSTANCE: CHD2                                                                            
 LARGEST CORRECTION TO DISP.        4.368E-09   AT NODE      13553   DOF  2
   INSTANCE: CHD2                                                                            
          THE FORCE     EQUILIBRIUM EQUATIONS HAVE CONVERGED

 ITERATION SUMMARY FOR THE INCREMENT:   1 TOTAL ITERATIONS, OF WHICH
   0 ARE SEVERE DISCONTINUITY ITERATIONS AND  1 ARE EQUILIBRIUM ITERATIONS.

 TIME INCREMENT COMPLETED   5.00    ,  FRACTION OF STEP COMPLETED  0.305    
 STEP TIME COMPLETED        305.    ,  TOTAL TIME COMPLETED         305.    


  INCREMENT    62 STARTS. ATTEMPT NUMBER  1, TIME INCREMENT   5.00    
 
	SYMMETRIC NEW DIRECT SPARSE SOLVER RUNNING ON
 	1 HOST x 1 MPI RANK PER HOST x 8 THREADS PER RANK
        NUMBER OF EQUATIONS:  131049
        NUMBER OF RHS:        1
        NUMBER OF FLOPS:      5.129e+10
        SOLVER ELAPSED TIME:  339ms

               CONVERGENCE CHECKS FOR EQUILIBRIUM ITERATION     1


 AVERAGE FORCE                       2.77       TIME AVG. FORCE        1.42    
 LARGEST SCALED RESIDUAL FORCE      2.619E-03   AT NODE      30607   DOF  2
   INSTANCE: CHD2                                                                            
  CORRESPONDING RESIDUAL FORCE      2.619E-03
 LARGEST INCREMENT OF DISP.         8.950E-06   AT NODE         25   DOF  2
   INSTANCE: CHD2                                                                            
 LARGEST CORRECTION TO DISP.        5.270E-09   AT NODE      13774   DOF  2
   INSTANCE: CHD2                                                                            
          THE FORCE     EQUILIBRIUM EQUATIONS HAVE CONVERGED

 ITERATION SUMMARY FOR THE INCREMENT:   1 TOTAL ITERATIONS, OF WHICH
   0 ARE SEVERE DISCONTINUITY ITERATIONS AND  1 ARE EQUILIBRIUM ITERATIONS.

 TIME INCREMENT COMPLETED   5.00    ,  FRACTION OF STEP COMPLETED  0.310    
 STEP TIME COMPLETED        310.    ,  TOTAL TIME COMPLETED         310.    


  INCREMENT    63 STARTS. ATTEMPT NUMBER  1, TIME INCREMENT   5.00    
