1

   Abaqus 2023.HF4                                  Date 21-Oct-2024   Time 16:04:11
   For use by AALTO UNIVERSITY under license from Dassault Systemes or its subsidiary.



                         The Abaqus Software is a product of:

                           Dassault Systemes SIMULIA Corp.
                           1301 Atwood Avenue, Suite 101W
                              Johnston, RI 02919, USA
 


                   The Abaqus Software is available only under license
                   from Dassault Systemes or its subsidiary and may be
                   used or reproduced only in accordance with the terms
                   of such license.
 
                          On machine L23-0203 
                          you are authorized to run
                          Abaqus/Standard until 20-Feb-2025

                          Your site id is: 200000000014764 


 
                    For assistance or any other information you may
                    obtain contact information for your local office
                    from the world wide web at:

                      https://www.3ds.com/products-services/simulia/services-support/

 
                * * * * * * * * * * * * * * * * * * * * * * * * * * * * * * 
                *                                                         * 
                *                   *****************                     * 
                *                   *  N O T I C E  *                     * 
                *                   *****************                     * 
                *                                                         * 
                *                                                         * 
                *                     Abaqus 2023.HF4                     * 
                *                                                         * 
                *       BUILD ID: 2023_07_21-20.45.57 RELr425 183702      * 
                *                                                         * 
                *                                                         * 
                *  Please make sure you are using                         * 
                *  release Abaqus 2023.HF4 manuals                        * 
                *  plus the notes accompanying this release.              * 
                *                                                         * 
                *                                                         * 
                *                                                         * 
                *                                                         * 
                *                                                         * 
                *   This program may not be used for commercial purposes  * 
                *           without payment of a commercial fee.          * 
                *                                                         * 
                * * * * * * * * * * * * * * * * * * * * * * * * * * * * * * 


 



     PROCESSING PART, INSTANCE, AND ASSEMBLY INFORMATION
   *******************************************************


     END PROCESSING PART, INSTANCE, AND ASSEMBLY INFORMATION
   ***********************************************************




     OPTIONS BEING PROCESSED
   ***************************


  *userelement, nodes=8, type=U1, properties=208, variables=240, coordinates=3
  *Heading
  *Element, type=U1
  *Element, type=C3D8
  *Elset, elset=ASSEMBLY_CHD2_SET-1
  *Elset, elset=ASSEMBLY_CHD2_SOLID
  *Elset, elset=ASSEMBLY_CHD2_VISUALIZATION
  *Elset, elset=ASSEMBLY_BOTTOM_PART
  *Elset, elset=ASSEMBLY_EFFECTIVE_SURFACE
  *Elset, elset=ASSEMBLY_HYDROGEN_SURFACE
  *Elset, elset=ASSEMBLY_TOP_PART
  *Elset, elset=ASSEMBLY_TOP_SURFACE
  *Elset, elset=ASSEMBLY_ZSYMM
  *material, name=USER_MATERIAL
  *density
  *depvar
  *usermaterial, constants=1
  *solidsection, elset=ASSEMBLY_CHD2_VISUALIZATION, material=USER_MATERIAL
  *userelement, nodes=8, type=U1, properties=208, variables=240, coordinates=3
  *solidsection, elset=ASSEMBLY_CHD2_VISUALIZATION, material=USER_MATERIAL
  *boundary
  *boundary
  *boundary
  *boundary, amplitude=LOADING
  *boundary
  *boundary
  *boundary
  *boundary, amplitude=LOADING
  *uelproperty, elset=ASSEMBLY_CHD2_SOLID
  *output, field, numberinterval=100
  *output, history, frequency=0
  *elementoutput, directions=YES
  *output, field, numberinterval=100
  *output, history, frequency=0
  *elementoutput, directions=YES
  *output, field, numberinterval=100
  *output, history, frequency=0
  *elementoutput, directions=YES
  
                               E L E M E N T   Q U A L I T Y  C H E C K S        
  
  
 ***NOTES: DISTORTED ISOPARAMETRIC ELEMENTS: ANGLE BETWEEN ISOPARAMETRIC LINES 
           IS LESS THAN 45 DEGREES OR GREATER THAN 135 DEGREES.
  
           TETRAHEDRAL QUALITY MEASURE: VOLUME OF TETRAHEDRON DIVIDED BY THE 
           VOLUME OF EQUILATERAL TETRAHEDRON WITH SAME CIRCUMSPHERE RADIUS; 
           0 FOR DEGENERATE TETRAHEDRON AND 1 FOR EQUILATERIAL TETRAHEDRON. IT 
           IS RECOMMENDED THAT THE TETRAHEDRAL QUALITY MEASURE BE GREATER THAN 
           0.02, THE MIN INTERIOR (DIHEDRAL) ANGLE BE GREATER THAN 10 DEGREES, 
           AND THE MAX INTERIOR (DIHEDRAL) ANGLE BE LESS THAN 160 DEGREES. 
  
           MODIFIED TETRAHEDRAL QUALITY MEASURE: ANGLES BETWEEN THE TWO LINE 
           SEGMENTS ON EACH EDGE; THE EDGES OF MODIFIED TETRAHEDRAL SHOULD BE 
           AS STRAIGHT AS POSSIBLE. IT IS RECOMMENDED THAT THE ANGLE BETWEEN 
           THE TWO LINE SEGMENTS ON EACH EDGE IS BETWEEN 160 AND 180 DEGREES. 
  
           TRIANGULAR QUALITY MEASURE: AREA OF TRIANGLE DIVIDED BY THE AREA OF 
           EQUILATERAL TRIANGLE WITH SAME CIRCUMCIRCLE RADIUS; 0 FOR DEGENERATE 
           TRIANGLE AND 1 FOR EQUILATERAL TRIANGLE. IT IS RECOMMENDED THAT THE
           TRIANGULAR QUALITY MEASURE BE GREATER THAN 0.01, THE MIN INTERIOR 
           ANGLE BE GREATER THAN 10 DEGREES, AND THE MAX INTERIOR ANGLE BE LESS 
           THAN 160 DEGREES. 
  
           NODAL ADJUSTMENTS ARISING FROM CONTACT INTERACTIONS AND/OR TIE 
           CONSTRAINTS CAN CAUSE SEVERE ELEMENT DISTORTION. IT MAY BE NECESSARY 
           TO REMESH IN ORDER TO REDUCE THE AMOUNT OF ADJUSTMENT. 

 ***WARNING: 170 elements are distorted. Either the isoparametric angles are 
             out of the suggested limits or the triangular or tetrahedral 
             quality measure is bad. The elements have been identified in 
             element set WarnElemDistorted.
  
 --------------------------------------------------------------------------------
 Distorted isoparametric elements
  
    Element      Min/max angle   Adjusted nodes 
 -------------- ---------------- -------------- 
    CHD2.130487          32.1368       NO       
    CHD2.130498          26.9875       NO       
    CHD2.130521          39.6083       NO       
    CHD2.130563          34.1748       NO       
    CHD2.130573          32.3987       NO       
    CHD2.130576          15.9069       NO       
    CHD2.130587          11.8546       NO       
    CHD2.130596          25.3328       NO       
    CHD2.130597          21.3787       NO       
    CHD2.130598          42.7895       NO       
    CHD2.130599            42.75       NO       
    CHD2.130603          16.0495       NO       
    CHD2.130623          36.8106       NO       
    CHD2.130624          41.0149       NO       
    CHD2.130637          43.4499       NO       
    CHD2.130928          32.1368       NO       
    CHD2.130939          26.9875       NO       
    CHD2.130962          39.6083       NO       
    CHD2.131004          34.1748       NO       
    CHD2.131014          32.3987       NO       
    CHD2.131017          15.9069       NO       
    CHD2.131028          11.8546       NO       
    CHD2.131037          25.3328       NO       
    CHD2.131038          21.3787       NO       
    CHD2.131039          42.7895       NO       
    CHD2.131040            42.75       NO       
    CHD2.131044          16.0495       NO       
    CHD2.131064          36.8106       NO       
    CHD2.131065          41.0149       NO       
    CHD2.131078          43.4499       NO       
    CHD2.131369          32.1368       NO       
    CHD2.131380          26.9875       NO       
    CHD2.131403          39.6083       NO       
    CHD2.131445          34.1748       NO       
    CHD2.131455          32.3987       NO       
    CHD2.131458          15.9069       NO       
    CHD2.131469          11.8546       NO       
    CHD2.131478          25.3328       NO       
    CHD2.131479          21.3787       NO       
    CHD2.131480          42.7895       NO       
    CHD2.131481            42.75       NO       
    CHD2.131485          16.0495       NO       
    CHD2.131505          36.8106       NO       
    CHD2.131506          41.0149       NO       
    CHD2.131519          43.4499       NO       
    CHD2.131810          32.1368       NO       
    CHD2.131821          26.9875       NO       
    CHD2.131844          39.6083       NO       
    CHD2.131886          34.1748       NO       
    CHD2.131896          32.3987       NO       
    CHD2.131899          15.9069       NO       
    CHD2.131910          11.8546       NO       
    CHD2.131919          25.3328       NO       
    CHD2.131920          21.3787       NO       
    CHD2.131921          42.7895       NO       
    CHD2.131922            42.75       NO       
    CHD2.131926          16.0495       NO       
    CHD2.131946          36.8106       NO       
    CHD2.131947          41.0149       NO       
    CHD2.131960          43.4499       NO       
    CHD2.132251          32.1368       NO       
    CHD2.132262          26.9875       NO       
    CHD2.132285          39.6083       NO       
    CHD2.132327          34.1748       NO       
    CHD2.132337          32.3987       NO       
    CHD2.132340          15.9069       NO       
    CHD2.132351          11.8546       NO       
    CHD2.132360          25.3328       NO       
    CHD2.132361          21.3787       NO       
    CHD2.132362          42.7895       NO       
    CHD2.132363            42.75       NO       
    CHD2.132367          16.0495       NO       
    CHD2.132387          36.8106       NO       
    CHD2.132388          41.0149       NO       
    CHD2.132401          43.4499       NO       
    CHD2.132642          24.4839       NO       
    CHD2.132937          29.9036       NO       
    CHD2.132941          35.8577       NO       
    CHD2.132948          29.9496       NO       
    CHD2.132950          32.8316       NO       
    CHD2.132972          35.4104       NO       
    CHD2.132976          31.5045       NO       
    CHD2.132979          30.3942       NO       
    CHD2.132988          28.6556       NO       
    CHD2.132994           27.472       NO       
    CHD2.132998          39.1756       NO       
    CHD2.133001          39.8503       NO       
    CHD2.133002          44.0211       NO       
    CHD2.133003          31.7485       NO       
    CHD2.133005          36.8363       NO       
    CHD2.133007          16.2066       NO       
    CHD2.133008          10.6608       NO       
    CHD2.133009          41.3706       NO       
    CHD2.133016          27.3437       NO       
    CHD2.133153          24.4839       NO       
    CHD2.133448          29.9036       NO       
    CHD2.133452          35.8577       NO       
    CHD2.133459          29.9496       NO       
    CHD2.133461          32.8316       NO       
    CHD2.133483          35.4104       NO       
    CHD2.133487          31.5045       NO       
    CHD2.133490          30.3942       NO       
    CHD2.133499          28.6556       NO       
    CHD2.133505           27.472       NO       
    CHD2.133509          39.1756       NO       
    CHD2.133512          39.8503       NO       
    CHD2.133513          44.0211       NO       
    CHD2.133514          31.7485       NO       
    CHD2.133516          36.8363       NO       
    CHD2.133518          16.2066       NO       
    CHD2.133519          10.6608       NO       
    CHD2.133520          41.3706       NO       
    CHD2.133527          27.3437       NO       
    CHD2.133664          24.4839       NO       
    CHD2.133959          29.9036       NO       
    CHD2.133963          35.8577       NO       
    CHD2.133970          29.9496       NO       
    CHD2.133972          32.8316       NO       
    CHD2.133994          35.4104       NO       
    CHD2.133998          31.5045       NO       
    CHD2.134001          30.3942       NO       
    CHD2.134010          28.6556       NO       
    CHD2.134016           27.472       NO       
    CHD2.134020          39.1756       NO       
    CHD2.134023          39.8503       NO       
    CHD2.134024          44.0211       NO       
    CHD2.134025          31.7485       NO       
    CHD2.134027          36.8363       NO       
    CHD2.134029          16.2066       NO       
    CHD2.134030          10.6608       NO       
    CHD2.134031          41.3706       NO       
    CHD2.134038          27.3437       NO       
    CHD2.134175          24.4839       NO       
    CHD2.134470          29.9036       NO       
    CHD2.134474          35.8577       NO       
    CHD2.134481          29.9496       NO       
    CHD2.134483          32.8316       NO       
    CHD2.134505          35.4104       NO       
    CHD2.134509          31.5045       NO       
    CHD2.134512          30.3942       NO       
    CHD2.134521          28.6556       NO       
    CHD2.134527           27.472       NO       
    CHD2.134531          39.1756       NO       
    CHD2.134534          39.8503       NO       
    CHD2.134535          44.0211       NO       
    CHD2.134536          31.7485       NO       
    CHD2.134538          36.8363       NO       
    CHD2.134540          16.2066       NO       
    CHD2.134541          10.6608       NO       
    CHD2.134542          41.3706       NO       
    CHD2.134549          27.3437       NO       
    CHD2.134686          24.4839       NO       
    CHD2.134981          29.9036       NO       
    CHD2.134985          35.8577       NO       
    CHD2.134992          29.9496       NO       
    CHD2.134994          32.8316       NO       
    CHD2.135016          35.4104       NO       
    CHD2.135020          31.5045       NO       
    CHD2.135023          30.3942       NO       
    CHD2.135032          28.6556       NO       
    CHD2.135038           27.472       NO       
    CHD2.135042          39.1756       NO       
    CHD2.135045          39.8503       NO       
    CHD2.135046          44.0211       NO       
    CHD2.135047          31.7485       NO       
    CHD2.135049          36.8363       NO       
    CHD2.135051          16.2066       NO       
    CHD2.135052          10.6608       NO       
    CHD2.135053          41.3706       NO       
    CHD2.135060          27.3437       NO       
  
  
  *Step, name=step1_tensile, nlgeom=YES, amplitude=STEP, inc=1000000
  *output, field, numberinterval=100
  *output, history, frequency=0
  *Step, name=step1_tensile, nlgeom=YES, amplitude=STEP, inc=1000000
  *Step, name=step1_tensile, nlgeom=YES, amplitude=STEP, inc=1000000
  *static
  *boundary
  *boundary, amplitude=LOADING
  *output, field, numberinterval=100
  *nodeoutput
  *elementoutput, directions=YES
  *output, history, frequency=0
  *endstep

 ***WARNING: OUTPUT AT EXACT, PREDEFINED TIME POINTS WAS REQUESTED IN THIS 
             STEP. IN ORDER TO WRITE OUTPUT AT EXACT TIME POINTS SPECIFIED, 
             Abaqus MIGHT USE TIME INCREMENTS SMALLER THAN THE MINIMUM TIME 
             INCREMENT ALLOWED IN THE STEP. IN ADDITION, THE NUMBER OF 
             INCREMENTS REQUIRED TO COMPLETE THE STEP WILL IN GENERAL INCREASE.

 ***WARNING: THE *ELEMENT OUTPUT OPTION IS NOT SUPPORTED FOR USER ELEMENTS

 ***WARNING: THE *ELEMENT OUTPUT OPTION IS NOT SUPPORTED FOR USER ELEMENTS
  *boundary
  *boundary
  *Step, name=step1_tensile, nlgeom=YES, amplitude=STEP, inc=1000000
  *static
  *boundary
  *boundary, amplitude=LOADING
  *endstep



                            P R O B L E M   S I Z E


          NUMBER OF ELEMENTS IS                                 70156
          NUMBER OF NODES IS                                    43683
          NUMBER OF NODES DEFINED BY THE USER                   43683
          TOTAL NUMBER OF VARIABLES IN THE MODEL               131049
          (DEGREES OF FREEDOM PLUS MAX NO. OF ANY LAGRANGE MULTIPLIER
           VARIABLES. INCLUDE *PRINT,SOLVE=YES TO GET THE ACTUAL NUMBER.)



                              END OF USER INPUT PROCESSING



     JOB TIME SUMMARY
       USER TIME (SEC)      =      1.6    
       SYSTEM TIME (SEC)    =     0.20    
       TOTAL CPU TIME (SEC) =      1.8    
       WALLCLOCK TIME (SEC) =            2
1

   Abaqus 2023.HF4                                  Date 21-Oct-2024   Time 16:04:18
   For use by AALTO UNIVERSITY under license from Dassault Systemes or its subsidiary.

                                                                                               STEP    1  INCREMENT    1
                                                                                          TIME COMPLETED IN THIS STEP   0.00    


                        S T E P       1     S T A T I C   A N A L Y S I S


                                                                                          

     AUTOMATIC TIME CONTROL WITH -
          A SUGGESTED INITIAL TIME INCREMENT OF                 5.00    
          AND A TOTAL TIME PERIOD OF                           1.000E+03
          THE MINIMUM TIME INCREMENT ALLOWED IS                1.000E-07
          THE MAXIMUM TIME INCREMENT ALLOWED IS                 5.00    

     LINEAR EQUATION SOLVER TYPE         DIRECT SPARSE

          LARGE DISPLACEMENT THEORY WILL BE USED
  
                   M E M O R Y   E S T I M A T E
  
 PROCESS      FLOATING PT       MINIMUM MEMORY        MEMORY TO
              OPERATIONS           REQUIRED          MINIMIZE I/O
             PER ITERATION           (MB)               (MB)
  
     1          5.13E+10              105                793
  
 NOTE:
      (1) SINCE ABAQUS DOES NOT PRE-ALLOCATE MEMORY AND ONLY ALLOCATES MEMORY AS NEEDED DURING THE ANALYSIS,
          THE MEMORY REQUIREMENT PRINTED HERE CAN ONLY BE VIEWED AS A GENERAL GUIDELINE BASED ON THE BEST
          KNOWLEDGE AVAILABLE AT THE BEGINNING OF A STEP BEFORE THE SOLUTION PROCESS HAS BEGUN.
      (2) THE ESTIMATE IS NORMALLY UPDATED AT THE BEGINNING OF EVERY STEP. IT IS THE MAXIMUM VALUE OF THE
          ESTIMATE FROM THE CURRENT STEP TO THE LAST STEP OF THE ANALYSIS, WITH UNSYMMETRIC SOLUTION TAKEN
          INTO ACCOUNT IF APPLICABLE. 
      (3) SINCE THE ESTIMATE IS BASED ON THE ACTIVE DEGREES OF FREEDOM IN THE FIRST ITERATION OF THE 
          CURRENT STEP, THE MEMORY ESTIMATE MIGHT BE SIGNIFICANTLY DIFFERENT THAN ACTUAL USAGE FOR 
          PROBLEMS WITH SUBSTANTIAL CHANGES IN ACTIVE DEGREES OF FREEDOM BETWEEN STEPS (OR EVEN WITHIN
          THE SAME STEP). EXAMPLES ARE: PROBLEMS WITH SIGNIFICANT CONTACT CHANGES, PROBLEMS WITH MODEL
          CHANGE, PROBLEMS WITH BOTH STATIC STEP AND STEADY STATE DYNAMIC PROCEDURES WHERE ACOUSTIC 
          ELEMENTS WILL ONLY BE ACTIVATED IN THE STEADY STATE DYNAMIC STEPS.
      (4) FOR MULTI-PROCESS EXECUTION, THE ESTIMATED VALUE OF FLOATING POINT OPERATIONS FOR EACH PROCESS
          IS BASED ON AN INITIAL SCHEDULING OF OPERATIONS AND MIGHT NOT REFLECT THE ACTUAL FLOATING 
          POINT OPERATIONS COMPLETED ON EACH PROCESS. OPERATIONS ARE DYNAMICALLY BALANCED DURING EXECUTION, 
          SO THE ACTUAL BALANCE OF OPERATIONS BETWEEN PROCESSES IS EXPECTED TO BE BETTER THAN THE ESTIMATE
          PRINTED HERE.
      (5) THE UPPER LIMIT OF MEMORY THAT CAN BE ALLOCATED BY ABAQUS WILL IN GENERAL DEPEND ON THE VALUE OF
          THE "MEMORY" PARAMETER AND THE AMOUNT OF PHYSICAL MEMORY AVAILABLE ON THE MACHINE. PLEASE SEE
          THE "ABAQUS ANALYSIS USER'S MANUAL" FOR MORE DETAILS. THE ACTUAL USAGE OF MEMORY AND OF DISK
          SPACE FOR SCRATCH DATA WILL DEPEND ON THIS UPPER LIMIT AS WELL AS THE MEMORY REQUIRED TO MINIMIZE
          I/O. IF THE MEMORY UPPER LIMIT IS GREATER THAN THE MEMORY REQUIRED TO MINIMIZE I/O, THEN THE ACTUAL
          MEMORY USAGE WILL BE CLOSE TO THE ESTIMATED "MEMORY TO MINIMIZE I/O" VALUE, AND THE SCRATCH DISK
          USAGE WILL BE CLOSE-TO-ZERO; OTHERWISE, THE ACTUAL MEMORY USED WILL BE CLOSE TO THE PREVIOUSLY
          MENTIONED MEMORY LIMIT, AND THE SCRATCH DISK USAGE WILL BE ROUGHLY PROPORTIONAL TO THE DIFFERENCE
          BETWEEN THE ESTIMATED "MEMORY TO MINIMIZE I/O" AND THE MEMORY UPPER LIMIT. HOWEVER ACCURATE
          ESTIMATE OF THE SCRATCH DISK SPACE IS NOT POSSIBLE.
      (6) USING "*RESTART, WRITE" CAN GENERATE A LARGE AMOUNT OF DATA WRITTEN IN THE WORK DIRECTORY.
