1

   Abaqus 2023.HF4                                  Date 21-Oct-2024   Time 15:55:35
   For use by AALTO UNIVERSITY under license from Dassault Systemes or its subsidiary.



                         The Abaqus Software is a product of:

                           Dassault Systemes SIMULIA Corp.
                           1301 Atwood Avenue, Suite 101W
                              Johnston, RI 02919, USA
 


                   The Abaqus Software is available only under license
                   from Dassault Systemes or its subsidiary and may be
                   used or reproduced only in accordance with the terms
                   of such license.
 
                          On machine L23-0203 
                          you are authorized to run
                          Abaqus/Standard until 20-Feb-2025

                          Your site id is: 200000000014764 


 
                    For assistance or any other information you may
                    obtain contact information for your local office
                    from the world wide web at:

                      https://www.3ds.com/products-services/simulia/services-support/

 
                * * * * * * * * * * * * * * * * * * * * * * * * * * * * * * 
                *                                                         * 
                *                   *****************                     * 
                *                   *  N O T I C E  *                     * 
                *                   *****************                     * 
                *                                                         * 
                *                                                         * 
                *                     Abaqus 2023.HF4                     * 
                *                                                         * 
                *       BUILD ID: 2023_07_21-20.45.57 RELr425 183702      * 
                *                                                         * 
                *                                                         * 
                *  Please make sure you are using                         * 
                *  release Abaqus 2023.HF4 manuals                        * 
                *  plus the notes accompanying this release.              * 
                *                                                         * 
                *                                                         * 
                *                                                         * 
                *                                                         * 
                *                                                         * 
                *   This program may not be used for commercial purposes  * 
                *           without payment of a commercial fee.          * 
                *                                                         * 
                * * * * * * * * * * * * * * * * * * * * * * * * * * * * * * 


 



     PROCESSING PART, INSTANCE, AND ASSEMBLY INFORMATION
   *******************************************************


     END PROCESSING PART, INSTANCE, AND ASSEMBLY INFORMATION
   ***********************************************************




     OPTIONS BEING PROCESSED
   ***************************


  *Heading
  *Element, type=C3D20R
  *Elset, elset=ASSEMBLY_CHD2_SET-1
  *Elset, elset=ASSEMBLY_BOTTOM_PART
  *Elset, elset=ASSEMBLY_EFFECTIVE_SURFACE
  *Elset, elset=ASSEMBLY_HYDROGEN_SURFACE
  *Elset, elset=ASSEMBLY_TOP_PART
  *Elset, elset=ASSEMBLY_TOP_SURFACE
  *Elset, elset=ASSEMBLY_ZSYMM
  *material, name=USER_MATERIAL
  *density
  *depvar
  *usermaterial, constants=1
  *solidsection, elset=ASSEMBLY_CHD2_SET-1, material=USER_MATERIAL
  *solidsection, elset=ASSEMBLY_CHD2_SET-1, material=USER_MATERIAL
  *boundary
  *boundary
  *boundary
  *boundary, amplitude=LOADING
  *boundary
  *boundary
  *boundary
  *boundary, amplitude=LOADING
  *output, field, numberinterval=100
  *output, history, frequency=0
  *elementoutput, directions=YES
  *output, field, numberinterval=100
  *output, history, frequency=0
  *elementoutput, directions=YES
  *output, field, numberinterval=100
  *output, history, frequency=0
  *elementoutput, directions=YES
  
                               E L E M E N T   Q U A L I T Y  C H E C K S        
  
  
 ***NOTES: DISTORTED ISOPARAMETRIC ELEMENTS: ANGLE BETWEEN ISOPARAMETRIC LINES 
           IS LESS THAN 45 DEGREES OR GREATER THAN 135 DEGREES.
  
           TETRAHEDRAL QUALITY MEASURE: VOLUME OF TETRAHEDRON DIVIDED BY THE 
           VOLUME OF EQUILATERAL TETRAHEDRON WITH SAME CIRCUMSPHERE RADIUS; 
           0 FOR DEGENERATE TETRAHEDRON AND 1 FOR EQUILATERIAL TETRAHEDRON. IT 
           IS RECOMMENDED THAT THE TETRAHEDRAL QUALITY MEASURE BE GREATER THAN 
           0.02, THE MIN INTERIOR (DIHEDRAL) ANGLE BE GREATER THAN 10 DEGREES, 
           AND THE MAX INTERIOR (DIHEDRAL) ANGLE BE LESS THAN 160 DEGREES. 
  
           MODIFIED TETRAHEDRAL QUALITY MEASURE: ANGLES BETWEEN THE TWO LINE 
           SEGMENTS ON EACH EDGE; THE EDGES OF MODIFIED TETRAHEDRAL SHOULD BE 
           AS STRAIGHT AS POSSIBLE. IT IS RECOMMENDED THAT THE ANGLE BETWEEN 
           THE TWO LINE SEGMENTS ON EACH EDGE IS BETWEEN 160 AND 180 DEGREES. 
  
           TRIANGULAR QUALITY MEASURE: AREA OF TRIANGLE DIVIDED BY THE AREA OF 
           EQUILATERAL TRIANGLE WITH SAME CIRCUMCIRCLE RADIUS; 0 FOR DEGENERATE 
           TRIANGLE AND 1 FOR EQUILATERAL TRIANGLE. IT IS RECOMMENDED THAT THE
           TRIANGULAR QUALITY MEASURE BE GREATER THAN 0.01, THE MIN INTERIOR 
           ANGLE BE GREATER THAN 10 DEGREES, AND THE MAX INTERIOR ANGLE BE LESS 
           THAN 160 DEGREES. 
  
           NODAL ADJUSTMENTS ARISING FROM CONTACT INTERACTIONS AND/OR TIE 
           CONSTRAINTS CAN CAUSE SEVERE ELEMENT DISTORTION. IT MAY BE NECESSARY 
           TO REMESH IN ORDER TO REDUCE THE AMOUNT OF ADJUSTMENT. 

 ***WARNING: 170 elements are distorted. Either the isoparametric angles are 
             out of the suggested limits or the triangular or tetrahedral 
             quality measure is bad. The elements have been identified in 
             element set WarnElemDistorted.
  
 --------------------------------------------------------------------------------
 Distorted isoparametric elements
  
    Element      Min/max angle   Adjusted nodes 
 -------------- ---------------- -------------- 
     CHD2.30487          32.1368       NO       
     CHD2.30498          26.9875       NO       
     CHD2.30521          39.6083       NO       
     CHD2.30563          34.1748       NO       
     CHD2.30573          32.3987       NO       
     CHD2.30576          15.9069       NO       
     CHD2.30587          11.8546       NO       
     CHD2.30596          25.3328       NO       
     CHD2.30597          21.3787       NO       
     CHD2.30598          42.7896       NO       
     CHD2.30599          42.7501       NO       
     CHD2.30603          16.0495       NO       
     CHD2.30623          36.8106       NO       
     CHD2.30624          41.0149       NO       
     CHD2.30637            43.45       NO       
     CHD2.30928          32.1368       NO       
     CHD2.30939          26.9875       NO       
     CHD2.30962          39.6083       NO       
     CHD2.31004          34.1748       NO       
     CHD2.31014          32.3987       NO       
     CHD2.31017          15.9069       NO       
     CHD2.31028          11.8546       NO       
     CHD2.31037          25.3328       NO       
     CHD2.31038          21.3787       NO       
     CHD2.31039          42.7896       NO       
     CHD2.31040          42.7501       NO       
     CHD2.31044          16.0495       NO       
     CHD2.31064          36.8106       NO       
     CHD2.31065          41.0149       NO       
     CHD2.31078            43.45       NO       
     CHD2.31369          32.1368       NO       
     CHD2.31380          26.9875       NO       
     CHD2.31403          39.6083       NO       
     CHD2.31445          34.1748       NO       
     CHD2.31455          32.3987       NO       
     CHD2.31458          15.9069       NO       
     CHD2.31469          11.8546       NO       
     CHD2.31478          25.3328       NO       
     CHD2.31479          21.3787       NO       
     CHD2.31480          42.7896       NO       
     CHD2.31481          42.7501       NO       
     CHD2.31485          16.0495       NO       
     CHD2.31505          36.8106       NO       
     CHD2.31506          41.0149       NO       
     CHD2.31519            43.45       NO       
     CHD2.31810          32.1368       NO       
     CHD2.31821          26.9875       NO       
     CHD2.31844          39.6083       NO       
     CHD2.31886          34.1748       NO       
     CHD2.31896          32.3987       NO       
     CHD2.31899          15.9069       NO       
     CHD2.31910          11.8546       NO       
     CHD2.31919          25.3328       NO       
     CHD2.31920          21.3787       NO       
     CHD2.31921          42.7896       NO       
     CHD2.31922          42.7501       NO       
     CHD2.31926          16.0495       NO       
     CHD2.31946          36.8106       NO       
     CHD2.31947          41.0149       NO       
     CHD2.31960            43.45       NO       
     CHD2.32251          32.1368       NO       
     CHD2.32262          26.9875       NO       
     CHD2.32285          39.6083       NO       
     CHD2.32327          34.1748       NO       
     CHD2.32337          32.3987       NO       
     CHD2.32340          15.9069       NO       
     CHD2.32351          11.8546       NO       
     CHD2.32360          25.3328       NO       
     CHD2.32361          21.3787       NO       
     CHD2.32362          42.7896       NO       
     CHD2.32363          42.7501       NO       
     CHD2.32367          16.0495       NO       
     CHD2.32387          36.8106       NO       
     CHD2.32388          41.0149       NO       
     CHD2.32401            43.45       NO       
     CHD2.32642          24.4839       NO       
     CHD2.32937          29.9037       NO       
     CHD2.32941          35.8577       NO       
     CHD2.32948          29.9496       NO       
     CHD2.32950          32.8317       NO       
     CHD2.32972          35.4105       NO       
     CHD2.32976          31.5045       NO       
     CHD2.32979          30.3942       NO       
     CHD2.32988          28.6556       NO       
     CHD2.32994           27.472       NO       
     CHD2.32998          39.1755       NO       
     CHD2.33001          39.8503       NO       
     CHD2.33002          44.0211       NO       
     CHD2.33003          31.7485       NO       
     CHD2.33005          36.8364       NO       
     CHD2.33007          16.2066       NO       
     CHD2.33008          10.6608       NO       
     CHD2.33009          41.3706       NO       
     CHD2.33016          27.3437       NO       
     CHD2.33153          24.4839       NO       
     CHD2.33448          29.9037       NO       
     CHD2.33452          35.8577       NO       
     CHD2.33459          29.9496       NO       
     CHD2.33461          32.8317       NO       
     CHD2.33483          35.4105       NO       
     CHD2.33487          31.5045       NO       
     CHD2.33490          30.3942       NO       
     CHD2.33499          28.6556       NO       
     CHD2.33505           27.472       NO       
     CHD2.33509          39.1755       NO       
     CHD2.33512          39.8503       NO       
     CHD2.33513          44.0211       NO       
     CHD2.33514          31.7485       NO       
     CHD2.33516          36.8364       NO       
     CHD2.33518          16.2066       NO       
     CHD2.33519          10.6608       NO       
     CHD2.33520          41.3706       NO       
     CHD2.33527          27.3437       NO       
     CHD2.33664          24.4839       NO       
     CHD2.33959          29.9037       NO       
     CHD2.33963          35.8577       NO       
     CHD2.33970          29.9496       NO       
     CHD2.33972          32.8317       NO       
     CHD2.33994          35.4105       NO       
     CHD2.33998          31.5045       NO       
     CHD2.34001          30.3942       NO       
     CHD2.34010          28.6556       NO       
     CHD2.34016           27.472       NO       
     CHD2.34020          39.1755       NO       
     CHD2.34023          39.8503       NO       
     CHD2.34024          44.0211       NO       
     CHD2.34025          31.7485       NO       
     CHD2.34027          36.8364       NO       
     CHD2.34029          16.2066       NO       
     CHD2.34030          10.6608       NO       
     CHD2.34031          41.3706       NO       
     CHD2.34038          27.3437       NO       
     CHD2.34175          24.4839       NO       
     CHD2.34470          29.9037       NO       
     CHD2.34474          35.8577       NO       
     CHD2.34481          29.9496       NO       
     CHD2.34483          32.8317       NO       
     CHD2.34505          35.4105       NO       
     CHD2.34509          31.5045       NO       
     CHD2.34512          30.3942       NO       
     CHD2.34521          28.6556       NO       
     CHD2.34527           27.472       NO       
     CHD2.34531          39.1755       NO       
     CHD2.34534          39.8503       NO       
     CHD2.34535          44.0211       NO       
     CHD2.34536          31.7485       NO       
     CHD2.34538          36.8364       NO       
     CHD2.34540          16.2066       NO       
     CHD2.34541          10.6608       NO       
     CHD2.34542          41.3706       NO       
     CHD2.34549          27.3437       NO       
     CHD2.34686          24.4839       NO       
     CHD2.34981          29.9037       NO       
     CHD2.34985          35.8577       NO       
     CHD2.34992          29.9496       NO       
     CHD2.34994          32.8317       NO       
     CHD2.35016          35.4105       NO       
     CHD2.35020          31.5045       NO       
     CHD2.35023          30.3942       NO       
     CHD2.35032          28.6556       NO       
     CHD2.35038           27.472       NO       
     CHD2.35042          39.1755       NO       
     CHD2.35045          39.8503       NO       
     CHD2.35046          44.0211       NO       
     CHD2.35047          31.7485       NO       
     CHD2.35049          36.8364       NO       
     CHD2.35051          16.2066       NO       
     CHD2.35052          10.6608       NO       
     CHD2.35053          41.3706       NO       
     CHD2.35060          27.3437       NO       
  
  
  *Step, name=step1_tensile, nlgeom=YES, amplitude=STEP, inc=1000000
  *output, field, numberinterval=100
  *output, history, frequency=0
  *Step, name=step1_tensile, nlgeom=YES, amplitude=STEP, inc=1000000
  *Step, name=step1_tensile, nlgeom=YES, amplitude=STEP, inc=1000000
  *static
  *boundary
  *boundary, amplitude=LOADING
  *output, field, numberinterval=100
  *nodeoutput
  *elementoutput, directions=YES
  *output, history, frequency=0
  *endstep

 ***WARNING: OUTPUT AT EXACT, PREDEFINED TIME POINTS WAS REQUESTED IN THIS 
             STEP. IN ORDER TO WRITE OUTPUT AT EXACT TIME POINTS SPECIFIED, 
             Abaqus MIGHT USE TIME INCREMENTS SMALLER THAN THE MINIMUM TIME 
             INCREMENT ALLOWED IN THE STEP. IN ADDITION, THE NUMBER OF 
             INCREMENTS REQUIRED TO COMPLETE THE STEP WILL IN GENERAL INCREASE.
  *boundary
  *boundary
  *Step, name=step1_tensile, nlgeom=YES, amplitude=STEP, inc=1000000
  *static
  *boundary
  *boundary, amplitude=LOADING
  *endstep



                            P R O B L E M   S I Z E


          NUMBER OF ELEMENTS IS                                 35078
          NUMBER OF NODES IS                                   165898
          NUMBER OF NODES DEFINED BY THE USER                  165898
          TOTAL NUMBER OF VARIABLES IN THE MODEL               497694
          (DEGREES OF FREEDOM PLUS MAX NO. OF ANY LAGRANGE MULTIPLIER
           VARIABLES. INCLUDE *PRINT,SOLVE=YES TO GET THE ACTUAL NUMBER.)



                              END OF USER INPUT PROCESSING



     JOB TIME SUMMARY
       USER TIME (SEC)      =      3.1    
       SYSTEM TIME (SEC)    =     0.30    
       TOTAL CPU TIME (SEC) =      3.4    
       WALLCLOCK TIME (SEC) =            4
1

   Abaqus 2023.HF4                                  Date 21-Oct-2024   Time 15:55:44
   For use by AALTO UNIVERSITY under license from Dassault Systemes or its subsidiary.

                                                                                               STEP    1  INCREMENT    1
                                                                                          TIME COMPLETED IN THIS STEP   0.00    


                        S T E P       1     S T A T I C   A N A L Y S I S


                                                                                          

     AUTOMATIC TIME CONTROL WITH -
          A SUGGESTED INITIAL TIME INCREMENT OF                 5.00    
          AND A TOTAL TIME PERIOD OF                           1.000E+03
          THE MINIMUM TIME INCREMENT ALLOWED IS                1.000E-07
          THE MAXIMUM TIME INCREMENT ALLOWED IS                 5.00    

     LINEAR EQUATION SOLVER TYPE         DIRECT SPARSE

          LARGE DISPLACEMENT THEORY WILL BE USED
  
                   M E M O R Y   E S T I M A T E
  
 PROCESS      FLOATING PT       MINIMUM MEMORY        MEMORY TO
              OPERATIONS           REQUIRED          MINIMIZE I/O
             PER ITERATION           (MB)               (MB)
  
     1          1.08E+06               71                157
  
 NOTE:
      (1) SINCE ABAQUS DOES NOT PRE-ALLOCATE MEMORY AND ONLY ALLOCATES MEMORY AS NEEDED DURING THE ANALYSIS,
          THE MEMORY REQUIREMENT PRINTED HERE CAN ONLY BE VIEWED AS A GENERAL GUIDELINE BASED ON THE BEST
          KNOWLEDGE AVAILABLE AT THE BEGINNING OF A STEP BEFORE THE SOLUTION PROCESS HAS BEGUN.
      (2) THE ESTIMATE IS NORMALLY UPDATED AT THE BEGINNING OF EVERY STEP. IT IS THE MAXIMUM VALUE OF THE
          ESTIMATE FROM THE CURRENT STEP TO THE LAST STEP OF THE ANALYSIS, WITH UNSYMMETRIC SOLUTION TAKEN
          INTO ACCOUNT IF APPLICABLE. 
      (3) SINCE THE ESTIMATE IS BASED ON THE ACTIVE DEGREES OF FREEDOM IN THE FIRST ITERATION OF THE 
          CURRENT STEP, THE MEMORY ESTIMATE MIGHT BE SIGNIFICANTLY DIFFERENT THAN ACTUAL USAGE FOR 
          PROBLEMS WITH SUBSTANTIAL CHANGES IN ACTIVE DEGREES OF FREEDOM BETWEEN STEPS (OR EVEN WITHIN
          THE SAME STEP). EXAMPLES ARE: PROBLEMS WITH SIGNIFICANT CONTACT CHANGES, PROBLEMS WITH MODEL
          CHANGE, PROBLEMS WITH BOTH STATIC STEP AND STEADY STATE DYNAMIC PROCEDURES WHERE ACOUSTIC 
          ELEMENTS WILL ONLY BE ACTIVATED IN THE STEADY STATE DYNAMIC STEPS.
      (4) FOR MULTI-PROCESS EXECUTION, THE ESTIMATED VALUE OF FLOATING POINT OPERATIONS FOR EACH PROCESS
          IS BASED ON AN INITIAL SCHEDULING OF OPERATIONS AND MIGHT NOT REFLECT THE ACTUAL FLOATING 
          POINT OPERATIONS COMPLETED ON EACH PROCESS. OPERATIONS ARE DYNAMICALLY BALANCED DURING EXECUTION, 
          SO THE ACTUAL BALANCE OF OPERATIONS BETWEEN PROCESSES IS EXPECTED TO BE BETTER THAN THE ESTIMATE
          PRINTED HERE.
      (5) THE UPPER LIMIT OF MEMORY THAT CAN BE ALLOCATED BY ABAQUS WILL IN GENERAL DEPEND ON THE VALUE OF
          THE "MEMORY" PARAMETER AND THE AMOUNT OF PHYSICAL MEMORY AVAILABLE ON THE MACHINE. PLEASE SEE
          THE "ABAQUS ANALYSIS USER'S MANUAL" FOR MORE DETAILS. THE ACTUAL USAGE OF MEMORY AND OF DISK
          SPACE FOR SCRATCH DATA WILL DEPEND ON THIS UPPER LIMIT AS WELL AS THE MEMORY REQUIRED TO MINIMIZE
          I/O. IF THE MEMORY UPPER LIMIT IS GREATER THAN THE MEMORY REQUIRED TO MINIMIZE I/O, THEN THE ACTUAL
          MEMORY USAGE WILL BE CLOSE TO THE ESTIMATED "MEMORY TO MINIMIZE I/O" VALUE, AND THE SCRATCH DISK
          USAGE WILL BE CLOSE-TO-ZERO; OTHERWISE, THE ACTUAL MEMORY USED WILL BE CLOSE TO THE PREVIOUSLY
          MENTIONED MEMORY LIMIT, AND THE SCRATCH DISK USAGE WILL BE ROUGHLY PROPORTIONAL TO THE DIFFERENCE
          BETWEEN THE ESTIMATED "MEMORY TO MINIMIZE I/O" AND THE MEMORY UPPER LIMIT. HOWEVER ACCURATE
          ESTIMATE OF THE SCRATCH DISK SPACE IS NOT POSSIBLE.
      (6) USING "*RESTART, WRITE" CAN GENERATE A LARGE AMOUNT OF DATA WRITTEN IN THE WORK DIRECTORY.
