 Abaqus/Standard 2023.HF4                  DATE 21-Oct-2024 TIME 15:55:46
 SUMMARY OF JOB INFORMATION:
 STEP  INC ATT SEVERE EQUIL TOTAL  TOTAL      STEP       INC OF       DOF    IF
               DISCON ITERS ITERS  TIME/    TIME/LPF    TIME/LPF    MONITOR RIKS
               ITERS               FREQ
   1     1   1     0     1     1  5.00       5.00       5.000     
   1     2   1     0     1     1  10.0       10.0       5.000     
   1     3   1     0     1     1  15.0       15.0       5.000     
   1     4   1     0     1     1  20.0       20.0       5.000     
   1     5   1     0     1     1  25.0       25.0       5.000     
   1     6   1     0     1     1  30.0       30.0       5.000     
   1     7   1     0     1     1  35.0       35.0       5.000     
   1     8   1     0     1     1  40.0       40.0       5.000     
   1     9   1     0     1     1  45.0       45.0       5.000     
   1    10   1     0     1     1  50.0       50.0       5.000     
   1    11   1     0     1     1  55.0       55.0       5.000     
   1    12   1     0     1     1  60.0       60.0       5.000     
   1    13   1     0     1     1  65.0       65.0       5.000     
   1    14   1     0     1     1  70.0       70.0       5.000     
   1    15   1     0     1     1  75.0       75.0       5.000     
   1    16   1     0     1     1  80.0       80.0       5.000     
   1    17   1     0     1     1  85.0       85.0       5.000     
   1    18   1     0     1     1  90.0       90.0       5.000     
   1    19   1     0     1     1  95.0       95.0       5.000     
   1    20   1     0     1     1  100.       100.       5.000     
   1    21   1     0     1     1  105.       105.       5.000     
   1    22   1     0     1     1  110.       110.       5.000     
   1    23   1     0     1     1  115.       115.       5.000     
   1    24   1     0     1     1  120.       120.       5.000     
   1    25   1     0     1     1  125.       125.       5.000     
   1    26   1     0     1     1  130.       130.       5.000     
   1    27   1     0     1     1  135.       135.       5.000     
   1    28   1     0     1     1  140.       140.       5.000     
   1    29   1     0     1     1  145.       145.       5.000     
