1

   Abaqus 2023.HF4                                  Date 21-May-2024   Time 14:49:24
   For use by AALTO UNIVERSITY under license from Dassault Systemes or its subsidiary.

                                                                                 
                                                                                 
 STEP    1     INCREMENT     1     STEP TIME    0.00    


                        S T E P       1     C O U P L E D - T E M P E R A T U R E - D I S P L A C E M E N T   A N A L Y S I S


                                                                                          

          FIXED TIME INCREMENTS
          TIME INCREMENT IS                                    1.000E+03
          TIME PERIOD IS                                       1.000E+05

          CREEP AND SWELLING EFFECTS ARE OMITTED IN THIS STEP
          THE RATE DEPENDENCY WILL BE CONSIDERED IN THIS STEP

          CREEP AND SWELLING EFFECTS WILL BE IGNORED.

 CONVERGENCE TOLERANCE PARAMETERS FOR FORCE    
     CRITERION FOR RESIDUAL FORCE     FOR A NONLINEAR PROBLEM          5.000E-03
     CRITERION FOR DISP.    CORRECTION IN A NONLINEAR PROBLEM          1.000E-02
     INITIAL VALUE OF TIME AVERAGE FORCE                               1.000E-02
     AVERAGE FORCE     IS TIME AVERAGE FORCE    
     ALTERNATE CRIT. FOR RESIDUAL FORCE     FOR A NONLINEAR PROBLEM    2.000E-02
     CRITERION FOR ZERO FORCE     RELATIVE TO TIME AVRG. FORCE         1.000E-05
     CRITERION FOR RESIDUAL FORCE     WHEN THERE IS ZERO FLUX          1.000E-05
     CRITERION FOR DISP.    CORRECTION WHEN THERE IS ZERO FLUX         1.000E-03
     CRITERION FOR RESIDUAL FORCE     FOR A LINEAR INCREMENT           1.000E-08
     FIELD CONVERSION RATIO                                             1.00    
     CRITERION FOR ZERO FORCE     REL. TO TIME AVRG. MAX. FORCE        1.000E-05
     CRITERION FOR ZERO DISP.    RELATIVE TO CHARACTERISTIC LENGTH     1.000E-08

 CONVERGENCE TOLERANCE PARAMETERS FOR HEAT FLUX
     CRITERION FOR RESIDUAL HEAT FLUX FOR A NONLINEAR PROBLEM          5.000E-03
     CRITERION FOR TEMP.    CORRECTION IN A NONLINEAR PROBLEM          1.000E-02
     INITIAL VALUE OF TIME AVERAGE HEAT FLUX                           1.000E-02
     AVERAGE HEAT FLUX IS TIME AVERAGE HEAT FLUX
     ALTERNATE CRIT. FOR RESIDUAL HEAT FLUX FOR A NONLINEAR PROBLEM    2.000E-02
     CRITERION FOR ZERO HEAT FLUX RELATIVE TO TIME AVRG. HEAT FLUX     1.000E-05
     CRITERION FOR RESIDUAL HEAT FLUX WHEN THERE IS ZERO FLUX          1.000E-05
     CRITERION FOR TEMP.    CORRECTION WHEN THERE IS ZERO FLUX         1.000E-03
     CRITERION FOR RESIDUAL HEAT FLUX FOR A LINEAR INCREMENT           1.000E-08
     FIELD CONVERSION RATIO                                             1.00    
     CRITERION FOR ZERO HEAT FLUX REL. TO TIME AVRG. MAX. HEAT FLUX    1.000E-05

     VOLUMETRIC STRAIN COMPATIBILITY TOLERANCE FOR HYBRID SOLIDS       1.000E-05
     AXIAL STRAIN COMPATIBILITY TOLERANCE FOR HYBRID BEAMS             1.000E-05
     TRANS. SHEAR STRAIN COMPATIBILITY TOLERANCE FOR HYBRID BEAMS      1.000E-05
     SOFT CONTACT CONSTRAINT COMPATIBILITY TOLERANCE FOR P>P0          5.000E-03
     SOFT CONTACT CONSTRAINT COMPATIBILITY TOLERANCE FOR P=0.0         0.100    
     CONTACT FORCE ERROR TOLERANCE FOR CONVERT SDI=YES                 1.00    
     DISPLACEMENT COMPATIBILITY TOLERANCE FOR DCOUP ELEMENTS           1.000E-05
     ROTATION COMPATIBILITY TOLERANCE FOR DCOUP ELEMENTS               1.000E-05

 EQUILIBRIUM WILL BE CHECKED FOR SEVERE DISCONTINUITY ITERATIONS

 ITERATION CONTROL PARAMETERS:
     FIRST EQUILIBRIUM ITERATION FOR CONSECUTIVE DIVERGENCE CHECK              4
     EQUILIBRIUM ITERATION AFTER WHICH ALTERNATE RESIDUAL IS USED              9
     MAXIMUM EQUILIBRIUM ITERATIONS ALLOWED                                   16
     MAXIMUM ITERATIONS FOR SEVERE DISCONTINUITIES                            12
     GLOBAL STABILIZATION CONTROL IS NOT USED

          PRINT OF INCREMENT NUMBER, TIME, ETC., EVERY    1  INCREMENTS

     THE MAXIMUM NUMBER OF INCREMENTS IN THIS STEP IS                    1000

          LARGE DISPLACEMENT THEORY WILL BE USED

          UNSYMMETRIC MATRIX STORAGE AND SOLUTION WILL BE USED

     LINEAR EXTRAPOLATION WILL BE USED

     CHARACTERISTIC ELEMENT LENGTH     8.389E-04

     DETAILS REGARDING ACTUAL SOLUTION WAVEFRONT REQUESTED

     DETAILED OUTPUT OF DIAGNOSTICS TO DATABASE REQUESTED

     PRINT OF INCREMENT NUMBER, TIME, ETC., TO THE MESSAGE FILE EVERY     1  INCREMENTS

     ELEMENT OPERATIONS WILL BE CARRIED OUT IN PARALLEL USING   4 THREADS ON 1 DOMAIN

     PARALLEL CONTACT TRACKING ENABLED


     COLLECTING MODEL CONSTRAINT INFORMATION FOR OVERCONSTRAINT CHECKS

     COLLECTING STEP CONSTRAINT INFORMATION FOR OVERCONSTRAINT CHECKS


  INCREMENT     1 STARTS. ATTEMPT NUMBER  1, TIME INCREMENT  1.000E+03
 
     INITIAL ELEMENT LOAD BALANCE
            DOMAIN    1     THREAD    NUMBER OF ELEMENTS
                              1            1192
                              2            888
                              3            1216
                              4            1201
 
	UNSYMMETRIC NEW DIRECT SPARSE SOLVER RUNNING ON
 	1 HOST x 1 MPI RANK PER HOST x 4 THREADS PER RANK
        NUMBER OF EQUATIONS:  45663
        NUMBER OF RHS:        1
        NUMBER OF FLOPS:      7.282e+09
        SOLVER ELAPSED TIME:  85ms

               CONVERGENCE CHECKS FOR EQUILIBRIUM ITERATION     1


 AVERAGE FORCE                      1.686E+03   TIME AVG. FORCE       1.686E+03
 LARGEST SCALED RESIDUAL FORCE       6.88       AT NODE      11632   DOF  1
   INSTANCE: ELASTIC-PLASTIC-PLATE-1                                                         
  CORRESPONDING RESIDUAL FORCE       6.88    
 LARGEST INCREMENT OF DISP.         6.053E-06   AT NODE      11703   DOF  2
   INSTANCE: ELASTIC-PLASTIC-PLATE-1                                                         
 LARGEST CORRECTION TO DISP.        6.053E-06   AT NODE      11703   DOF  2
   INSTANCE: ELASTIC-PLASTIC-PLATE-1                                                         
          DISP.    CORRECTION TOO LARGE COMPARED TO DISP.    INCREMENT

 AVERAGE HEAT FLUX                  1.670E-26   TIME AVG. HEAT FLUX   1.000E-02
 LARGEST RESIDUAL HEAT FLUX        -1.953E-25   AT NODE       2443   DOF 11
   INSTANCE: ELASTIC-PLASTIC-PLATE-1                                                         
 LARGEST INCREMENT OF TEMP.        -6.915E-16   AT NODE       4631   DOF 11
   INSTANCE: ELASTIC-PLASTIC-PLATE-1                                                         
 LARGEST CORRECTION TO TEMP.       -6.915E-16   AT NODE       4631   DOF 11
   INSTANCE: ELASTIC-PLASTIC-PLATE-1                                                         
          THERE IS ZERO HEAT FLUX EVERYWHERE
 

 ***WARNING: THERE IS ZERO HEAT FLUX EVERYWHERE IN THE MODEL BASED ON THE 
             DEFAULT CRITERION. PLEASE CHECK THE VALUE OF THE AVERAGE HEAT FLUX 
             DURING THE CURRENT ITERATION TO VERIFY THAT THE HEAT FLUX IS SMALL 
             ENOUGH TO BE TREATED AS ZERO. IF NOT, PLEASE USE THE SOLUTION 
             CONTROLS TO RESET THE CRITERION FOR ZERO HEAT FLUX.

 COMPATIBILITY ERRORS:
    TYPE                NUMBER EXCEEDING TOLERANCE  MAXIMUM ERROR        IN ELEMENT
 VOLUMETRIC                          0               -1.129E-07               3306
   INSTANCE: ELASTIC-PLASTIC-PLATE-1                                                         
 
	UNSYMMETRIC NEW DIRECT SPARSE SOLVER RUNNING ON
 	1 HOST x 1 MPI RANK PER HOST x 4 THREADS PER RANK
        NUMBER OF EQUATIONS:  45663
        NUMBER OF RHS:        1
        NUMBER OF FLOPS:      1.926e+09
        SOLVER ELAPSED TIME:  36ms

               CONVERGENCE CHECKS FOR EQUILIBRIUM ITERATION     2


 AVERAGE FORCE                      1.686E+03   TIME AVG. FORCE       1.686E+03
 LARGEST SCALED RESIDUAL FORCE      3.347E-03   AT NODE      11631   DOF  1
   INSTANCE: ELASTIC-PLASTIC-PLATE-1                                                         
  CORRESPONDING RESIDUAL FORCE      3.347E-03
 LARGEST INCREMENT OF DISP.         6.053E-06   AT NODE      11703   DOF  2
   INSTANCE: ELASTIC-PLASTIC-PLATE-1                                                         
 LARGEST CORRECTION TO DISP.        4.433E-10   AT NODE      12304   DOF  1
   INSTANCE: ELASTIC-PLASTIC-PLATE-1                                                         
          THE FORCE     EQUILIBRIUM EQUATIONS HAVE CONVERGED

 AVERAGE HEAT FLUX                  1.721E-26   TIME AVG. HEAT FLUX   1.000E-02
 LARGEST RESIDUAL HEAT FLUX        -1.796E-25   AT NODE       3855   DOF 11
   INSTANCE: ELASTIC-PLASTIC-PLATE-1                                                         
 LARGEST INCREMENT OF TEMP.         8.928E-16   AT NODE       4552   DOF 11
   INSTANCE: ELASTIC-PLASTIC-PLATE-1                                                         
 LARGEST CORRECTION TO TEMP.       -9.050E-16   AT NODE       3580   DOF 11
   INSTANCE: ELASTIC-PLASTIC-PLATE-1                                                         
          THERE IS ZERO HEAT FLUX EVERYWHERE
 

 ***WARNING: THERE IS ZERO HEAT FLUX EVERYWHERE IN THE MODEL BASED ON THE 
             DEFAULT CRITERION. PLEASE CHECK THE VALUE OF THE AVERAGE HEAT FLUX 
             DURING THE CURRENT ITERATION TO VERIFY THAT THE HEAT FLUX IS SMALL 
             ENOUGH TO BE TREATED AS ZERO. IF NOT, PLEASE USE THE SOLUTION 
             CONTROLS TO RESET THE CRITERION FOR ZERO HEAT FLUX.

 COMPATIBILITY ERRORS:
    TYPE                NUMBER EXCEEDING TOLERANCE  MAXIMUM ERROR        IN ELEMENT
 VOLUMETRIC                          0               -3.032E-14               3306
   INSTANCE: ELASTIC-PLASTIC-PLATE-1                                                         

 ITERATION SUMMARY FOR THE INCREMENT:   2 TOTAL ITERATIONS, OF WHICH
   0 ARE SEVERE DISCONTINUITY ITERATIONS AND  2 ARE EQUILIBRIUM ITERATIONS.

 TIME INCREMENT COMPLETED  1.000E+03,  FRACTION OF STEP COMPLETED  1.000E-02
 STEP TIME COMPLETED       1.000E+03,  TOTAL TIME COMPLETED        1.000E+03


  INCREMENT     2 STARTS. ATTEMPT NUMBER  1, TIME INCREMENT  1.000E+03
 
	UNSYMMETRIC NEW DIRECT SPARSE SOLVER RUNNING ON
 	1 HOST x 1 MPI RANK PER HOST x 4 THREADS PER RANK
        NUMBER OF EQUATIONS:  45663
        NUMBER OF RHS:        1
        NUMBER OF FLOPS:      1.900e+09
        SOLVER ELAPSED TIME:  38ms

               CONVERGENCE CHECKS FOR EQUILIBRIUM ITERATION     1


 AVERAGE FORCE                      4.032E+03   TIME AVG. FORCE       2.859E+03
 LARGEST SCALED RESIDUAL FORCE      3.828E-03   AT NODE      10351   DOF  2
   INSTANCE: ELASTIC-PLASTIC-PLATE-1                                                         
  CORRESPONDING RESIDUAL FORCE      3.828E-03
 LARGEST INCREMENT OF DISP.         6.052E-06   AT NODE      11703   DOF  2
   INSTANCE: ELASTIC-PLASTIC-PLATE-1                                                         
 LARGEST CORRECTION TO DISP.        9.729E-10   AT NODE      12304   DOF  1
   INSTANCE: ELASTIC-PLASTIC-PLATE-1                                                         
          THE FORCE     EQUILIBRIUM EQUATIONS HAVE CONVERGED

 AVERAGE HEAT FLUX                  2.086E-13   TIME AVG. HEAT FLUX   1.000E-02
 LARGEST RESIDUAL HEAT FLUX         1.045E-11   AT NODE        263   DOF 11
   INSTANCE: ELASTIC-PLASTIC-PLATE-1                                                         
 LARGEST INCREMENT OF TEMP.         9.057E-02   AT NODE          6   DOF 11
   INSTANCE: ELASTIC-PLASTIC-PLATE-1                                                         
 LARGEST CORRECTION TO TEMP.        9.057E-02   AT NODE          6   DOF 11
   INSTANCE: ELASTIC-PLASTIC-PLATE-1                                                         
          THERE IS ZERO HEAT FLUX EVERYWHERE
 

 ***WARNING: THERE IS ZERO HEAT FLUX EVERYWHERE IN THE MODEL BASED ON THE 
             DEFAULT CRITERION. PLEASE CHECK THE VALUE OF THE AVERAGE HEAT FLUX 
             DURING THE CURRENT ITERATION TO VERIFY THAT THE HEAT FLUX IS SMALL 
             ENOUGH TO BE TREATED AS ZERO. IF NOT, PLEASE USE THE SOLUTION 
             CONTROLS TO RESET THE CRITERION FOR ZERO HEAT FLUX.

 COMPATIBILITY ERRORS:
    TYPE                NUMBER EXCEEDING TOLERANCE  MAXIMUM ERROR        IN ELEMENT
 VOLUMETRIC                          0               -9.993E-14               3306
   INSTANCE: ELASTIC-PLASTIC-PLATE-1                                                         

 ITERATION SUMMARY FOR THE INCREMENT:   1 TOTAL ITERATIONS, OF WHICH
   0 ARE SEVERE DISCONTINUITY ITERATIONS AND  1 ARE EQUILIBRIUM ITERATIONS.

 TIME INCREMENT COMPLETED  1.000E+03,  FRACTION OF STEP COMPLETED  2.000E-02
 STEP TIME COMPLETED       2.000E+03,  TOTAL TIME COMPLETED        2.000E+03


  INCREMENT     3 STARTS. ATTEMPT NUMBER  1, TIME INCREMENT  1.000E+03
 
	UNSYMMETRIC NEW DIRECT SPARSE SOLVER RUNNING ON
 	1 HOST x 1 MPI RANK PER HOST x 4 THREADS PER RANK
        NUMBER OF EQUATIONS:  45663
        NUMBER OF RHS:        1
        NUMBER OF FLOPS:      1.898e+09
        SOLVER ELAPSED TIME:  41ms

               CONVERGENCE CHECKS FOR EQUILIBRIUM ITERATION     1


 AVERAGE FORCE                      6.047E+03   TIME AVG. FORCE       3.922E+03
 LARGEST SCALED RESIDUAL FORCE      3.451E-03   AT NODE      10353   DOF  2
   INSTANCE: ELASTIC-PLASTIC-PLATE-1                                                         
  CORRESPONDING RESIDUAL FORCE      3.451E-03
 LARGEST INCREMENT OF DISP.         6.052E-06   AT NODE      11703   DOF  2
   INSTANCE: ELASTIC-PLASTIC-PLATE-1                                                         
 LARGEST CORRECTION TO DISP.        9.716E-10   AT NODE      12304   DOF  1
   INSTANCE: ELASTIC-PLASTIC-PLATE-1                                                         
          THE FORCE     EQUILIBRIUM EQUATIONS HAVE CONVERGED

 AVERAGE HEAT FLUX                  3.123E-13   TIME AVG. HEAT FLUX   1.000E-02
 LARGEST RESIDUAL HEAT FLUX         1.046E-11   AT NODE        263   DOF 11
   INSTANCE: ELASTIC-PLASTIC-PLATE-1                                                         
 LARGEST INCREMENT OF TEMP.         0.129       AT NODE          6   DOF 11
   INSTANCE: ELASTIC-PLASTIC-PLATE-1                                                         
 LARGEST CORRECTION TO TEMP.        4.066E-02   AT NODE        263   DOF 11
   INSTANCE: ELASTIC-PLASTIC-PLATE-1                                                         
          THERE IS ZERO HEAT FLUX EVERYWHERE
 

 ***WARNING: THERE IS ZERO HEAT FLUX EVERYWHERE IN THE MODEL BASED ON THE 
             DEFAULT CRITERION. PLEASE CHECK THE VALUE OF THE AVERAGE HEAT FLUX 
             DURING THE CURRENT ITERATION TO VERIFY THAT THE HEAT FLUX IS SMALL 
             ENOUGH TO BE TREATED AS ZERO. IF NOT, PLEASE USE THE SOLUTION 
             CONTROLS TO RESET THE CRITERION FOR ZERO HEAT FLUX.

 COMPATIBILITY ERRORS:
    TYPE                NUMBER EXCEEDING TOLERANCE  MAXIMUM ERROR        IN ELEMENT
 VOLUMETRIC                          0               -9.943E-14               3306
   INSTANCE: ELASTIC-PLASTIC-PLATE-1                                                         

 ITERATION SUMMARY FOR THE INCREMENT:   1 TOTAL ITERATIONS, OF WHICH
   0 ARE SEVERE DISCONTINUITY ITERATIONS AND  1 ARE EQUILIBRIUM ITERATIONS.

 TIME INCREMENT COMPLETED  1.000E+03,  FRACTION OF STEP COMPLETED  3.000E-02
 STEP TIME COMPLETED       3.000E+03,  TOTAL TIME COMPLETED        3.000E+03


  INCREMENT     4 STARTS. ATTEMPT NUMBER  1, TIME INCREMENT  1.000E+03
 
	UNSYMMETRIC NEW DIRECT SPARSE SOLVER RUNNING ON
 	1 HOST x 1 MPI RANK PER HOST x 4 THREADS PER RANK
        NUMBER OF EQUATIONS:  45663
        NUMBER OF RHS:        1
        NUMBER OF FLOPS:      1.903e+09
        SOLVER ELAPSED TIME:  40ms

               CONVERGENCE CHECKS FOR EQUILIBRIUM ITERATION     1


 AVERAGE FORCE                      8.063E+03   TIME AVG. FORCE       4.957E+03
 LARGEST SCALED RESIDUAL FORCE     -3.563E-03   AT NODE      11918   DOF  2
   INSTANCE: ELASTIC-PLASTIC-PLATE-1                                                         
  CORRESPONDING RESIDUAL FORCE     -3.563E-03
 LARGEST INCREMENT OF DISP.         6.052E-06   AT NODE      11703   DOF  2
   INSTANCE: ELASTIC-PLASTIC-PLATE-1                                                         
 LARGEST CORRECTION TO DISP.        9.708E-10   AT NODE      12304   DOF  1
   INSTANCE: ELASTIC-PLASTIC-PLATE-1                                                         
          THE FORCE     EQUILIBRIUM EQUATIONS HAVE CONVERGED

 AVERAGE HEAT FLUX                  4.155E-13   TIME AVG. HEAT FLUX   1.000E-02
 LARGEST RESIDUAL HEAT FLUX         1.049E-11   AT NODE        263   DOF 11
   INSTANCE: ELASTIC-PLASTIC-PLATE-1                                                         
 LARGEST INCREMENT OF TEMP.         0.160       AT NODE          6   DOF 11
   INSTANCE: ELASTIC-PLASTIC-PLATE-1                                                         
 LARGEST CORRECTION TO TEMP.        3.100E-02   AT NODE          6   DOF 11
   INSTANCE: ELASTIC-PLASTIC-PLATE-1                                                         
          THERE IS ZERO HEAT FLUX EVERYWHERE
 

 ***WARNING: THERE IS ZERO HEAT FLUX EVERYWHERE IN THE MODEL BASED ON THE 
             DEFAULT CRITERION. PLEASE CHECK THE VALUE OF THE AVERAGE HEAT FLUX 
             DURING THE CURRENT ITERATION TO VERIFY THAT THE HEAT FLUX IS SMALL 
             ENOUGH TO BE TREATED AS ZERO. IF NOT, PLEASE USE THE SOLUTION 
             CONTROLS TO RESET THE CRITERION FOR ZERO HEAT FLUX.

 COMPATIBILITY ERRORS:
    TYPE                NUMBER EXCEEDING TOLERANCE  MAXIMUM ERROR        IN ELEMENT
 VOLUMETRIC                          0               -9.895E-14               3306
   INSTANCE: ELASTIC-PLASTIC-PLATE-1                                                         

 ITERATION SUMMARY FOR THE INCREMENT:   1 TOTAL ITERATIONS, OF WHICH
   0 ARE SEVERE DISCONTINUITY ITERATIONS AND  1 ARE EQUILIBRIUM ITERATIONS.

 TIME INCREMENT COMPLETED  1.000E+03,  FRACTION OF STEP COMPLETED  4.000E-02
 STEP TIME COMPLETED       4.000E+03,  TOTAL TIME COMPLETED        4.000E+03


  INCREMENT     5 STARTS. ATTEMPT NUMBER  1, TIME INCREMENT  1.000E+03
 
	UNSYMMETRIC NEW DIRECT SPARSE SOLVER RUNNING ON
 	1 HOST x 1 MPI RANK PER HOST x 4 THREADS PER RANK
        NUMBER OF EQUATIONS:  45663
        NUMBER OF RHS:        1
        NUMBER OF FLOPS:      1.952e+09
        SOLVER ELAPSED TIME:  43ms

               CONVERGENCE CHECKS FOR EQUILIBRIUM ITERATION     1


 AVERAGE FORCE                      1.008E+04   TIME AVG. FORCE       5.981E+03
 LARGEST SCALED RESIDUAL FORCE       4.43       AT NODE          6   DOF  1
   INSTANCE: ELASTIC-PLASTIC-PLATE-1                                                         
  CORRESPONDING RESIDUAL FORCE       4.43    
 LARGEST INCREMENT OF DISP.         6.051E-06   AT NODE      11703   DOF  2
   INSTANCE: ELASTIC-PLASTIC-PLATE-1                                                         
 LARGEST CORRECTION TO DISP.        7.776E-09   AT NODE      12303   DOF  2
   INSTANCE: ELASTIC-PLASTIC-PLATE-1                                                         
          THE FORCE     EQUILIBRIUM EQUATIONS HAVE CONVERGED

 AVERAGE HEAT FLUX                  5.184E-13   TIME AVG. HEAT FLUX   1.000E-02
 LARGEST RESIDUAL HEAT FLUX         1.052E-11   AT NODE        263   DOF 11
   INSTANCE: ELASTIC-PLASTIC-PLATE-1                                                         
 LARGEST INCREMENT OF TEMP.         0.186       AT NODE          6   DOF 11
   INSTANCE: ELASTIC-PLASTIC-PLATE-1                                                         
 LARGEST CORRECTION TO TEMP.        2.574E-02   AT NODE          6   DOF 11
   INSTANCE: ELASTIC-PLASTIC-PLATE-1                                                         
          THERE IS ZERO HEAT FLUX EVERYWHERE
 

 ***WARNING: THERE IS ZERO HEAT FLUX EVERYWHERE IN THE MODEL BASED ON THE 
             DEFAULT CRITERION. PLEASE CHECK THE VALUE OF THE AVERAGE HEAT FLUX 
             DURING THE CURRENT ITERATION TO VERIFY THAT THE HEAT FLUX IS SMALL 
             ENOUGH TO BE TREATED AS ZERO. IF NOT, PLEASE USE THE SOLUTION 
             CONTROLS TO RESET THE CRITERION FOR ZERO HEAT FLUX.

 COMPATIBILITY ERRORS:
    TYPE                NUMBER EXCEEDING TOLERANCE  MAXIMUM ERROR        IN ELEMENT
 VOLUMETRIC                          0                1.195E-10               3306
   INSTANCE: ELASTIC-PLASTIC-PLATE-1                                                         

 ITERATION SUMMARY FOR THE INCREMENT:   1 TOTAL ITERATIONS, OF WHICH
   0 ARE SEVERE DISCONTINUITY ITERATIONS AND  1 ARE EQUILIBRIUM ITERATIONS.

 TIME INCREMENT COMPLETED  1.000E+03,  FRACTION OF STEP COMPLETED  5.000E-02
 STEP TIME COMPLETED       5.000E+03,  TOTAL TIME COMPLETED        5.000E+03


  INCREMENT     6 STARTS. ATTEMPT NUMBER  1, TIME INCREMENT  1.000E+03
 
	UNSYMMETRIC NEW DIRECT SPARSE SOLVER RUNNING ON
 	1 HOST x 1 MPI RANK PER HOST x 4 THREADS PER RANK
        NUMBER OF EQUATIONS:  45663
        NUMBER OF RHS:        1
        NUMBER OF FLOPS:      1.982e+09
        SOLVER ELAPSED TIME:  41ms

               CONVERGENCE CHECKS FOR EQUILIBRIUM ITERATION     1


 AVERAGE FORCE                      1.209E+04   TIME AVG. FORCE       6.999E+03
 LARGEST SCALED RESIDUAL FORCE      -763.       AT NODE      11883   DOF  2
   INSTANCE: ELASTIC-PLASTIC-PLATE-1                                                         
  CORRESPONDING RESIDUAL FORCE      -763.    
 LARGEST INCREMENT OF DISP.         6.051E-06   AT NODE      11703   DOF  2
   INSTANCE: ELASTIC-PLASTIC-PLATE-1                                                         
 LARGEST CORRECTION TO DISP.        1.003E-07   AT NODE        263   DOF  2
   INSTANCE: ELASTIC-PLASTIC-PLATE-1                                                         
          FORCE     EQUILIBRIUM NOT ACHIEVED WITHIN TOLERANCE.

 AVERAGE HEAT FLUX                  6.205E-13   TIME AVG. HEAT FLUX   1.000E-02
 LARGEST RESIDUAL HEAT FLUX         8.011E-12   AT NODE        263   DOF 11
   INSTANCE: ELASTIC-PLASTIC-PLATE-1                                                         
 LARGEST INCREMENT OF TEMP.         0.167       AT NODE        263   DOF 11
   INSTANCE: ELASTIC-PLASTIC-PLATE-1                                                         
 LARGEST CORRECTION TO TEMP.        4.571E-02   AT NODE        264   DOF 11
   INSTANCE: ELASTIC-PLASTIC-PLATE-1                                                         
          THERE IS ZERO HEAT FLUX EVERYWHERE
 

 ***WARNING: THERE IS ZERO HEAT FLUX EVERYWHERE IN THE MODEL BASED ON THE 
             DEFAULT CRITERION. PLEASE CHECK THE VALUE OF THE AVERAGE HEAT FLUX 
             DURING THE CURRENT ITERATION TO VERIFY THAT THE HEAT FLUX IS SMALL 
             ENOUGH TO BE TREATED AS ZERO. IF NOT, PLEASE USE THE SOLUTION 
             CONTROLS TO RESET THE CRITERION FOR ZERO HEAT FLUX.

 COMPATIBILITY ERRORS:
    TYPE                NUMBER EXCEEDING TOLERANCE  MAXIMUM ERROR        IN ELEMENT
 VOLUMETRIC                          0               -1.932E-08               3306
   INSTANCE: ELASTIC-PLASTIC-PLATE-1                                                         
 
	UNSYMMETRIC NEW DIRECT SPARSE SOLVER RUNNING ON
 	1 HOST x 1 MPI RANK PER HOST x 4 THREADS PER RANK
        NUMBER OF EQUATIONS:  45663
        NUMBER OF RHS:        1
        NUMBER OF FLOPS:      1.984e+09
        SOLVER ELAPSED TIME:  42ms

               CONVERGENCE CHECKS FOR EQUILIBRIUM ITERATION     2


 AVERAGE FORCE                      1.209E+04   TIME AVG. FORCE       6.999E+03
 LARGEST SCALED RESIDUAL FORCE       2.40       AT NODE      11883   DOF  2
   INSTANCE: ELASTIC-PLASTIC-PLATE-1                                                         
  CORRESPONDING RESIDUAL FORCE       2.40    
 LARGEST INCREMENT OF DISP.         6.051E-06   AT NODE      11703   DOF  2
   INSTANCE: ELASTIC-PLASTIC-PLATE-1                                                         
 LARGEST CORRECTION TO DISP.        5.521E-09   AT NODE        263   DOF  2
   INSTANCE: ELASTIC-PLASTIC-PLATE-1                                                         
          THE FORCE     EQUILIBRIUM EQUATIONS HAVE CONVERGED

 AVERAGE HEAT FLUX                  6.234E-13   TIME AVG. HEAT FLUX   1.000E-02
 LARGEST RESIDUAL HEAT FLUX        -3.915E-11   AT NODE        263   DOF 11
   INSTANCE: ELASTIC-PLASTIC-PLATE-1                                                         
 LARGEST INCREMENT OF TEMP.         0.213       AT NODE        263   DOF 11
   INSTANCE: ELASTIC-PLASTIC-PLATE-1                                                         
 LARGEST CORRECTION TO TEMP.        4.681E-02   AT NODE        263   DOF 11
   INSTANCE: ELASTIC-PLASTIC-PLATE-1                                                         
          THERE IS ZERO HEAT FLUX EVERYWHERE
 

 ***WARNING: THERE IS ZERO HEAT FLUX EVERYWHERE IN THE MODEL BASED ON THE 
             DEFAULT CRITERION. PLEASE CHECK THE VALUE OF THE AVERAGE HEAT FLUX 
             DURING THE CURRENT ITERATION TO VERIFY THAT THE HEAT FLUX IS SMALL 
             ENOUGH TO BE TREATED AS ZERO. IF NOT, PLEASE USE THE SOLUTION 
             CONTROLS TO RESET THE CRITERION FOR ZERO HEAT FLUX.

 COMPATIBILITY ERRORS:
    TYPE                NUMBER EXCEEDING TOLERANCE  MAXIMUM ERROR        IN ELEMENT
 VOLUMETRIC                          0                7.384E-11               3057
   INSTANCE: ELASTIC-PLASTIC-PLATE-1                                                         

 ITERATION SUMMARY FOR THE INCREMENT:   2 TOTAL ITERATIONS, OF WHICH
   0 ARE SEVERE DISCONTINUITY ITERATIONS AND  2 ARE EQUILIBRIUM ITERATIONS.

 TIME INCREMENT COMPLETED  1.000E+03,  FRACTION OF STEP COMPLETED  6.000E-02
 STEP TIME COMPLETED       6.000E+03,  TOTAL TIME COMPLETED        6.000E+03


  INCREMENT     7 STARTS. ATTEMPT NUMBER  1, TIME INCREMENT  1.000E+03
 
	UNSYMMETRIC NEW DIRECT SPARSE SOLVER RUNNING ON
 	1 HOST x 1 MPI RANK PER HOST x 4 THREADS PER RANK
        NUMBER OF EQUATIONS:  45663
        NUMBER OF RHS:        1
        NUMBER OF FLOPS:      2.044e+09
        SOLVER ELAPSED TIME:  37ms

               CONVERGENCE CHECKS FOR EQUILIBRIUM ITERATION     1


 AVERAGE FORCE                      1.410E+04   TIME AVG. FORCE       8.014E+03
 LARGEST SCALED RESIDUAL FORCE       460.       AT NODE      11883   DOF  2
   INSTANCE: ELASTIC-PLASTIC-PLATE-1                                                         
  CORRESPONDING RESIDUAL FORCE       460.    
 LARGEST INCREMENT OF DISP.         6.052E-06   AT NODE      11703   DOF  2
   INSTANCE: ELASTIC-PLASTIC-PLATE-1                                                         
 LARGEST CORRECTION TO DISP.        1.164E-07   AT NODE        262   DOF  2
   INSTANCE: ELASTIC-PLASTIC-PLATE-1                                                         
          FORCE     EQUILIBRIUM NOT ACHIEVED WITHIN TOLERANCE.

 AVERAGE HEAT FLUX                  7.246E-13   TIME AVG. HEAT FLUX   1.000E-02
 LARGEST RESIDUAL HEAT FLUX         4.290E-11   AT NODE       3083   DOF 11
   INSTANCE: ELASTIC-PLASTIC-PLATE-1                                                         
 LARGEST INCREMENT OF TEMP.         0.349       AT NODE        264   DOF 11
   INSTANCE: ELASTIC-PLASTIC-PLATE-1                                                         
 LARGEST CORRECTION TO TEMP.       -0.509       AT NODE          6   DOF 11
   INSTANCE: ELASTIC-PLASTIC-PLATE-1                                                         
          THERE IS ZERO HEAT FLUX EVERYWHERE
 

 ***WARNING: THERE IS ZERO HEAT FLUX EVERYWHERE IN THE MODEL BASED ON THE 
             DEFAULT CRITERION. PLEASE CHECK THE VALUE OF THE AVERAGE HEAT FLUX 
             DURING THE CURRENT ITERATION TO VERIFY THAT THE HEAT FLUX IS SMALL 
             ENOUGH TO BE TREATED AS ZERO. IF NOT, PLEASE USE THE SOLUTION 
             CONTROLS TO RESET THE CRITERION FOR ZERO HEAT FLUX.

 COMPATIBILITY ERRORS:
    TYPE                NUMBER EXCEEDING TOLERANCE  MAXIMUM ERROR        IN ELEMENT
 VOLUMETRIC                          0               -1.902E-08               3306
   INSTANCE: ELASTIC-PLASTIC-PLATE-1                                                         
 
	UNSYMMETRIC NEW DIRECT SPARSE SOLVER RUNNING ON
 	1 HOST x 1 MPI RANK PER HOST x 4 THREADS PER RANK
        NUMBER OF EQUATIONS:  45663
        NUMBER OF RHS:        1
        NUMBER OF FLOPS:      2.051e+09
        SOLVER ELAPSED TIME:  37ms

               CONVERGENCE CHECKS FOR EQUILIBRIUM ITERATION     2


 AVERAGE FORCE                      1.410E+04   TIME AVG. FORCE       8.014E+03
 LARGEST SCALED RESIDUAL FORCE      0.808       AT NODE       3083   DOF  2
   INSTANCE: ELASTIC-PLASTIC-PLATE-1                                                         
  CORRESPONDING RESIDUAL FORCE      0.808    
 LARGEST INCREMENT OF DISP.         6.052E-06   AT NODE      11703   DOF  2
   INSTANCE: ELASTIC-PLASTIC-PLATE-1                                                         
 LARGEST CORRECTION TO DISP.        4.154E-09   AT NODE      12304   DOF  1
   INSTANCE: ELASTIC-PLASTIC-PLATE-1                                                         
          THE FORCE     EQUILIBRIUM EQUATIONS HAVE CONVERGED

 AVERAGE HEAT FLUX                  7.237E-13   TIME AVG. HEAT FLUX   1.000E-02
 LARGEST RESIDUAL HEAT FLUX         3.017E-11   AT NODE       3083   DOF 11
   INSTANCE: ELASTIC-PLASTIC-PLATE-1                                                         
 LARGEST INCREMENT OF TEMP.        -0.657       AT NODE          6   DOF 11
   INSTANCE: ELASTIC-PLASTIC-PLATE-1                                                         
 LARGEST CORRECTION TO TEMP.       -0.348       AT NODE          6   DOF 11
   INSTANCE: ELASTIC-PLASTIC-PLATE-1                                                         
          THERE IS ZERO HEAT FLUX EVERYWHERE
 

 ***WARNING: THERE IS ZERO HEAT FLUX EVERYWHERE IN THE MODEL BASED ON THE 
             DEFAULT CRITERION. PLEASE CHECK THE VALUE OF THE AVERAGE HEAT FLUX 
             DURING THE CURRENT ITERATION TO VERIFY THAT THE HEAT FLUX IS SMALL 
             ENOUGH TO BE TREATED AS ZERO. IF NOT, PLEASE USE THE SOLUTION 
             CONTROLS TO RESET THE CRITERION FOR ZERO HEAT FLUX.

 COMPATIBILITY ERRORS:
    TYPE                NUMBER EXCEEDING TOLERANCE  MAXIMUM ERROR        IN ELEMENT
 VOLUMETRIC                          0                4.369E-11               3057
   INSTANCE: ELASTIC-PLASTIC-PLATE-1                                                         

 ITERATION SUMMARY FOR THE INCREMENT:   2 TOTAL ITERATIONS, OF WHICH
   0 ARE SEVERE DISCONTINUITY ITERATIONS AND  2 ARE EQUILIBRIUM ITERATIONS.

 TIME INCREMENT COMPLETED  1.000E+03,  FRACTION OF STEP COMPLETED  7.000E-02
 STEP TIME COMPLETED       7.000E+03,  TOTAL TIME COMPLETED        7.000E+03


  INCREMENT     8 STARTS. ATTEMPT NUMBER  1, TIME INCREMENT  1.000E+03
 
	UNSYMMETRIC NEW DIRECT SPARSE SOLVER RUNNING ON
 	1 HOST x 1 MPI RANK PER HOST x 4 THREADS PER RANK
        NUMBER OF EQUATIONS:  45663
        NUMBER OF RHS:        1
        NUMBER OF FLOPS:      2.061e+09
        SOLVER ELAPSED TIME:  39ms

               CONVERGENCE CHECKS FOR EQUILIBRIUM ITERATION     1


 AVERAGE FORCE                      1.610E+04   TIME AVG. FORCE       9.025E+03
 LARGEST SCALED RESIDUAL FORCE      1.445E+03   AT NODE      11883   DOF  1
   INSTANCE: ELASTIC-PLASTIC-PLATE-1                                                         
  CORRESPONDING RESIDUAL FORCE      1.445E+03
 LARGEST INCREMENT OF DISP.         6.053E-06   AT NODE      11703   DOF  2
   INSTANCE: ELASTIC-PLASTIC-PLATE-1                                                         
 LARGEST CORRECTION TO DISP.        1.230E-07   AT NODE          6   DOF  1
   INSTANCE: ELASTIC-PLASTIC-PLATE-1                                                         
          FORCE     EQUILIBRIUM NOT ACHIEVED WITHIN TOLERANCE.

 AVERAGE HEAT FLUX                  8.274E-13   TIME AVG. HEAT FLUX   1.000E-02
 LARGEST RESIDUAL HEAT FLUX         5.291E-11   AT NODE       3083   DOF 11
   INSTANCE: ELASTIC-PLASTIC-PLATE-1                                                         
 LARGEST INCREMENT OF TEMP.        -0.317       AT NODE        263   DOF 11
   INSTANCE: ELASTIC-PLASTIC-PLATE-1                                                         
 LARGEST CORRECTION TO TEMP.        0.760       AT NODE          6   DOF 11
   INSTANCE: ELASTIC-PLASTIC-PLATE-1                                                         
          THERE IS ZERO HEAT FLUX EVERYWHERE
 

 ***WARNING: THERE IS ZERO HEAT FLUX EVERYWHERE IN THE MODEL BASED ON THE 
             DEFAULT CRITERION. PLEASE CHECK THE VALUE OF THE AVERAGE HEAT FLUX 
             DURING THE CURRENT ITERATION TO VERIFY THAT THE HEAT FLUX IS SMALL 
             ENOUGH TO BE TREATED AS ZERO. IF NOT, PLEASE USE THE SOLUTION 
             CONTROLS TO RESET THE CRITERION FOR ZERO HEAT FLUX.

 COMPATIBILITY ERRORS:
    TYPE                NUMBER EXCEEDING TOLERANCE  MAXIMUM ERROR        IN ELEMENT
 VOLUMETRIC                          0               -1.172E-08               3031
   INSTANCE: ELASTIC-PLASTIC-PLATE-1                                                         
 
	UNSYMMETRIC NEW DIRECT SPARSE SOLVER RUNNING ON
 	1 HOST x 1 MPI RANK PER HOST x 4 THREADS PER RANK
        NUMBER OF EQUATIONS:  45663
        NUMBER OF RHS:        1
        NUMBER OF FLOPS:      2.066e+09
        SOLVER ELAPSED TIME:  51ms

               CONVERGENCE CHECKS FOR EQUILIBRIUM ITERATION     2


 AVERAGE FORCE                      1.611E+04   TIME AVG. FORCE       9.025E+03
 LARGEST SCALED RESIDUAL FORCE       4.69       AT NODE      11883   DOF  1
   INSTANCE: ELASTIC-PLASTIC-PLATE-1                                                         
  CORRESPONDING RESIDUAL FORCE       4.69    
 LARGEST INCREMENT OF DISP.         6.053E-06   AT NODE      11703   DOF  2
   INSTANCE: ELASTIC-PLASTIC-PLATE-1                                                         
 LARGEST CORRECTION TO DISP.        1.284E-08   AT NODE      11880   DOF  2
   INSTANCE: ELASTIC-PLASTIC-PLATE-1                                                         
          THE FORCE     EQUILIBRIUM EQUATIONS HAVE CONVERGED

 AVERAGE HEAT FLUX                  8.274E-13   TIME AVG. HEAT FLUX   1.000E-02
 LARGEST RESIDUAL HEAT FLUX        -7.790E-11   AT NODE       3083   DOF 11
   INSTANCE: ELASTIC-PLASTIC-PLATE-1                                                         
 LARGEST INCREMENT OF TEMP.        -0.553       AT NODE        263   DOF 11
   INSTANCE: ELASTIC-PLASTIC-PLATE-1                                                         
 LARGEST CORRECTION TO TEMP.       -0.285       AT NODE          6   DOF 11
   INSTANCE: ELASTIC-PLASTIC-PLATE-1                                                         
          THERE IS ZERO HEAT FLUX EVERYWHERE
 

 ***WARNING: THERE IS ZERO HEAT FLUX EVERYWHERE IN THE MODEL BASED ON THE 
             DEFAULT CRITERION. PLEASE CHECK THE VALUE OF THE AVERAGE HEAT FLUX 
             DURING THE CURRENT ITERATION TO VERIFY THAT THE HEAT FLUX IS SMALL 
             ENOUGH TO BE TREATED AS ZERO. IF NOT, PLEASE USE THE SOLUTION 
             CONTROLS TO RESET THE CRITERION FOR ZERO HEAT FLUX.

 COMPATIBILITY ERRORS:
    TYPE                NUMBER EXCEEDING TOLERANCE  MAXIMUM ERROR        IN ELEMENT
 VOLUMETRIC                          0               -1.946E-10               3031
   INSTANCE: ELASTIC-PLASTIC-PLATE-1                                                         

 ITERATION SUMMARY FOR THE INCREMENT:   2 TOTAL ITERATIONS, OF WHICH
   0 ARE SEVERE DISCONTINUITY ITERATIONS AND  2 ARE EQUILIBRIUM ITERATIONS.

 TIME INCREMENT COMPLETED  1.000E+03,  FRACTION OF STEP COMPLETED  8.000E-02
 STEP TIME COMPLETED       8.000E+03,  TOTAL TIME COMPLETED        8.000E+03


  INCREMENT     9 STARTS. ATTEMPT NUMBER  1, TIME INCREMENT  1.000E+03
 
	UNSYMMETRIC NEW DIRECT SPARSE SOLVER RUNNING ON
 	1 HOST x 1 MPI RANK PER HOST x 4 THREADS PER RANK
        NUMBER OF EQUATIONS:  45663
        NUMBER OF RHS:        1
        NUMBER OF FLOPS:      2.065e+09
        SOLVER ELAPSED TIME:  41ms

               CONVERGENCE CHECKS FOR EQUILIBRIUM ITERATION     1


 AVERAGE FORCE                      1.810E+04   TIME AVG. FORCE       1.003E+04
 LARGEST SCALED RESIDUAL FORCE      -293.       AT NODE       2777   DOF  2
   INSTANCE: ELASTIC-PLASTIC-PLATE-1                                                         
  CORRESPONDING RESIDUAL FORCE      -293.    
 LARGEST INCREMENT OF DISP.         6.055E-06   AT NODE      11703   DOF  2
   INSTANCE: ELASTIC-PLASTIC-PLATE-1                                                         
 LARGEST CORRECTION TO DISP.        1.233E-07   AT NODE      11918   DOF  1
   INSTANCE: ELASTIC-PLASTIC-PLATE-1                                                         
          FORCE     EQUILIBRIUM NOT ACHIEVED WITHIN TOLERANCE.

 AVERAGE HEAT FLUX                  9.235E-13   TIME AVG. HEAT FLUX   1.000E-02
 LARGEST RESIDUAL HEAT FLUX         3.245E-11   AT NODE       2777   DOF 11
   INSTANCE: ELASTIC-PLASTIC-PLATE-1                                                         
 LARGEST INCREMENT OF TEMP.         0.304       AT NODE        265   DOF 11
   INSTANCE: ELASTIC-PLASTIC-PLATE-1                                                         
 LARGEST CORRECTION TO TEMP.        0.727       AT NODE        263   DOF 11
   INSTANCE: ELASTIC-PLASTIC-PLATE-1                                                         
          THERE IS ZERO HEAT FLUX EVERYWHERE
 

 ***WARNING: THERE IS ZERO HEAT FLUX EVERYWHERE IN THE MODEL BASED ON THE 
             DEFAULT CRITERION. PLEASE CHECK THE VALUE OF THE AVERAGE HEAT FLUX 
             DURING THE CURRENT ITERATION TO VERIFY THAT THE HEAT FLUX IS SMALL 
             ENOUGH TO BE TREATED AS ZERO. IF NOT, PLEASE USE THE SOLUTION 
             CONTROLS TO RESET THE CRITERION FOR ZERO HEAT FLUX.

 COMPATIBILITY ERRORS:
    TYPE                NUMBER EXCEEDING TOLERANCE  MAXIMUM ERROR        IN ELEMENT
 VOLUMETRIC                          0               -1.202E-08               3031
   INSTANCE: ELASTIC-PLASTIC-PLATE-1                                                         
 
	UNSYMMETRIC NEW DIRECT SPARSE SOLVER RUNNING ON
 	1 HOST x 1 MPI RANK PER HOST x 4 THREADS PER RANK
        NUMBER OF EQUATIONS:  45663
        NUMBER OF RHS:        1
        NUMBER OF FLOPS:      2.071e+09
        SOLVER ELAPSED TIME:  42ms

               CONVERGENCE CHECKS FOR EQUILIBRIUM ITERATION     2


 AVERAGE FORCE                      1.810E+04   TIME AVG. FORCE       1.003E+04
 LARGEST SCALED RESIDUAL FORCE     -0.760       AT NODE      11879   DOF  2
   INSTANCE: ELASTIC-PLASTIC-PLATE-1                                                         
  CORRESPONDING RESIDUAL FORCE     -0.760    
 LARGEST INCREMENT OF DISP.         6.055E-06   AT NODE      11703   DOF  2
   INSTANCE: ELASTIC-PLASTIC-PLATE-1                                                         
 LARGEST CORRECTION TO DISP.        3.138E-09   AT NODE      11918   DOF  1
   INSTANCE: ELASTIC-PLASTIC-PLATE-1                                                         
          THE FORCE     EQUILIBRIUM EQUATIONS HAVE CONVERGED

 AVERAGE HEAT FLUX                  9.242E-13   TIME AVG. HEAT FLUX   1.000E-02
 LARGEST RESIDUAL HEAT FLUX        -3.687E-11   AT NODE       3083   DOF 11
   INSTANCE: ELASTIC-PLASTIC-PLATE-1                                                         
 LARGEST INCREMENT OF TEMP.         0.448       AT NODE        265   DOF 11
   INSTANCE: ELASTIC-PLASTIC-PLATE-1                                                         
 LARGEST CORRECTION TO TEMP.        0.144       AT NODE        265   DOF 11
   INSTANCE: ELASTIC-PLASTIC-PLATE-1                                                         
          THERE IS ZERO HEAT FLUX EVERYWHERE
 

 ***WARNING: THERE IS ZERO HEAT FLUX EVERYWHERE IN THE MODEL BASED ON THE 
             DEFAULT CRITERION. PLEASE CHECK THE VALUE OF THE AVERAGE HEAT FLUX 
             DURING THE CURRENT ITERATION TO VERIFY THAT THE HEAT FLUX IS SMALL 
             ENOUGH TO BE TREATED AS ZERO. IF NOT, PLEASE USE THE SOLUTION 
             CONTROLS TO RESET THE CRITERION FOR ZERO HEAT FLUX.

 COMPATIBILITY ERRORS:
    TYPE                NUMBER EXCEEDING TOLERANCE  MAXIMUM ERROR        IN ELEMENT
 VOLUMETRIC                          0                1.682E-11               3030
   INSTANCE: ELASTIC-PLASTIC-PLATE-1                                                         

 ITERATION SUMMARY FOR THE INCREMENT:   2 TOTAL ITERATIONS, OF WHICH
   0 ARE SEVERE DISCONTINUITY ITERATIONS AND  2 ARE EQUILIBRIUM ITERATIONS.

 TIME INCREMENT COMPLETED  1.000E+03,  FRACTION OF STEP COMPLETED  9.000E-02
 STEP TIME COMPLETED       9.000E+03,  TOTAL TIME COMPLETED        9.000E+03


  INCREMENT    10 STARTS. ATTEMPT NUMBER  1, TIME INCREMENT  1.000E+03
 
	UNSYMMETRIC NEW DIRECT SPARSE SOLVER RUNNING ON
 	1 HOST x 1 MPI RANK PER HOST x 4 THREADS PER RANK
        NUMBER OF EQUATIONS:  45663
        NUMBER OF RHS:        1
        NUMBER OF FLOPS:      2.098e+09
        SOLVER ELAPSED TIME:  50ms

               CONVERGENCE CHECKS FOR EQUILIBRIUM ITERATION     1


 AVERAGE FORCE                      2.009E+04   TIME AVG. FORCE       1.104E+04
 LARGEST SCALED RESIDUAL FORCE      1.259E+03   AT NODE      11798   DOF  2
   INSTANCE: ELASTIC-PLASTIC-PLATE-1                                                         
  CORRESPONDING RESIDUAL FORCE      1.259E+03
 LARGEST INCREMENT OF DISP.         6.057E-06   AT NODE      11703   DOF  2
   INSTANCE: ELASTIC-PLASTIC-PLATE-1                                                         
 LARGEST CORRECTION TO DISP.        1.231E-07   AT NODE          6   DOF  1
   INSTANCE: ELASTIC-PLASTIC-PLATE-1                                                         
          FORCE     EQUILIBRIUM NOT ACHIEVED WITHIN TOLERANCE.

 AVERAGE HEAT FLUX                  1.029E-12   TIME AVG. HEAT FLUX   1.000E-02
 LARGEST RESIDUAL HEAT FLUX         3.973E-11   AT NODE       2777   DOF 11
   INSTANCE: ELASTIC-PLASTIC-PLATE-1                                                         
 LARGEST INCREMENT OF TEMP.         0.313       AT NODE       2777   DOF 11
   INSTANCE: ELASTIC-PLASTIC-PLATE-1                                                         
 LARGEST CORRECTION TO TEMP.       -0.321       AT NODE        265   DOF 11
   INSTANCE: ELASTIC-PLASTIC-PLATE-1                                                         
          THERE IS ZERO HEAT FLUX EVERYWHERE
 

 ***WARNING: THERE IS ZERO HEAT FLUX EVERYWHERE IN THE MODEL BASED ON THE 
             DEFAULT CRITERION. PLEASE CHECK THE VALUE OF THE AVERAGE HEAT FLUX 
             DURING THE CURRENT ITERATION TO VERIFY THAT THE HEAT FLUX IS SMALL 
             ENOUGH TO BE TREATED AS ZERO. IF NOT, PLEASE USE THE SOLUTION 
             CONTROLS TO RESET THE CRITERION FOR ZERO HEAT FLUX.

 COMPATIBILITY ERRORS:
    TYPE                NUMBER EXCEEDING TOLERANCE  MAXIMUM ERROR        IN ELEMENT
 VOLUMETRIC                          0               -6.324E-09               2989
   INSTANCE: ELASTIC-PLASTIC-PLATE-1                                                         
 
	UNSYMMETRIC NEW DIRECT SPARSE SOLVER RUNNING ON
 	1 HOST x 1 MPI RANK PER HOST x 4 THREADS PER RANK
        NUMBER OF EQUATIONS:  45663
        NUMBER OF RHS:        1
        NUMBER OF FLOPS:      2.101e+09
        SOLVER ELAPSED TIME:  38ms

               CONVERGENCE CHECKS FOR EQUILIBRIUM ITERATION     2


 AVERAGE FORCE                      2.010E+04   TIME AVG. FORCE       1.104E+04
 LARGEST SCALED RESIDUAL FORCE       2.26       AT NODE      11879   DOF  2
   INSTANCE: ELASTIC-PLASTIC-PLATE-1                                                         
  CORRESPONDING RESIDUAL FORCE       2.26    
 LARGEST INCREMENT OF DISP.         6.057E-06   AT NODE      11703   DOF  2
   INSTANCE: ELASTIC-PLASTIC-PLATE-1                                                         
 LARGEST CORRECTION TO DISP.        1.120E-08   AT NODE        264   DOF  1
   INSTANCE: ELASTIC-PLASTIC-PLATE-1                                                         
          THE FORCE     EQUILIBRIUM EQUATIONS HAVE CONVERGED

 AVERAGE HEAT FLUX                  1.027E-12   TIME AVG. HEAT FLUX   1.000E-02
 LARGEST RESIDUAL HEAT FLUX        -6.510E-11   AT NODE       2777   DOF 11
   INSTANCE: ELASTIC-PLASTIC-PLATE-1                                                         
 LARGEST INCREMENT OF TEMP.         0.432       AT NODE       2777   DOF 11
   INSTANCE: ELASTIC-PLASTIC-PLATE-1                                                         
 LARGEST CORRECTION TO TEMP.        0.141       AT NODE        265   DOF 11
   INSTANCE: ELASTIC-PLASTIC-PLATE-1                                                         
          THERE IS ZERO HEAT FLUX EVERYWHERE
 

 ***WARNING: THERE IS ZERO HEAT FLUX EVERYWHERE IN THE MODEL BASED ON THE 
             DEFAULT CRITERION. PLEASE CHECK THE VALUE OF THE AVERAGE HEAT FLUX 
             DURING THE CURRENT ITERATION TO VERIFY THAT THE HEAT FLUX IS SMALL 
             ENOUGH TO BE TREATED AS ZERO. IF NOT, PLEASE USE THE SOLUTION 
             CONTROLS TO RESET THE CRITERION FOR ZERO HEAT FLUX.

 COMPATIBILITY ERRORS:
    TYPE                NUMBER EXCEEDING TOLERANCE  MAXIMUM ERROR        IN ELEMENT
 VOLUMETRIC                          0               -1.637E-10               2989
   INSTANCE: ELASTIC-PLASTIC-PLATE-1                                                         

 ITERATION SUMMARY FOR THE INCREMENT:   2 TOTAL ITERATIONS, OF WHICH
   0 ARE SEVERE DISCONTINUITY ITERATIONS AND  2 ARE EQUILIBRIUM ITERATIONS.

 TIME INCREMENT COMPLETED  1.000E+03,  FRACTION OF STEP COMPLETED  0.100    
 STEP TIME COMPLETED       1.000E+04,  TOTAL TIME COMPLETED        1.000E+04


  INCREMENT    11 STARTS. ATTEMPT NUMBER  1, TIME INCREMENT  1.000E+03
 
	UNSYMMETRIC NEW DIRECT SPARSE SOLVER RUNNING ON
 	1 HOST x 1 MPI RANK PER HOST x 4 THREADS PER RANK
        NUMBER OF EQUATIONS:  45663
        NUMBER OF RHS:        1
        NUMBER OF FLOPS:      2.116e+09
        SOLVER ELAPSED TIME:  38ms

               CONVERGENCE CHECKS FOR EQUILIBRIUM ITERATION     1


 AVERAGE FORCE                      2.208E+04   TIME AVG. FORCE       1.204E+04
 LARGEST SCALED RESIDUAL FORCE       510.       AT NODE      11879   DOF  1
   INSTANCE: ELASTIC-PLASTIC-PLATE-1                                                         
  CORRESPONDING RESIDUAL FORCE       510.    
 LARGEST INCREMENT OF DISP.         6.059E-06   AT NODE      11703   DOF  2
   INSTANCE: ELASTIC-PLASTIC-PLATE-1                                                         
 LARGEST CORRECTION TO DISP.        1.325E-07   AT NODE      11632   DOF  1
   INSTANCE: ELASTIC-PLASTIC-PLATE-1                                                         
          FORCE     EQUILIBRIUM NOT ACHIEVED WITHIN TOLERANCE.

 AVERAGE HEAT FLUX                  1.125E-12   TIME AVG. HEAT FLUX   1.000E-02
 LARGEST RESIDUAL HEAT FLUX         2.153E-11   AT NODE       2891   DOF 11
   INSTANCE: ELASTIC-PLASTIC-PLATE-1                                                         
 LARGEST INCREMENT OF TEMP.         0.245       AT NODE       2891   DOF 11
   INSTANCE: ELASTIC-PLASTIC-PLATE-1                                                         
 LARGEST CORRECTION TO TEMP.       -0.437       AT NODE       2777   DOF 11
   INSTANCE: ELASTIC-PLASTIC-PLATE-1                                                         
          THERE IS ZERO HEAT FLUX EVERYWHERE
 

 ***WARNING: THERE IS ZERO HEAT FLUX EVERYWHERE IN THE MODEL BASED ON THE 
             DEFAULT CRITERION. PLEASE CHECK THE VALUE OF THE AVERAGE HEAT FLUX 
             DURING THE CURRENT ITERATION TO VERIFY THAT THE HEAT FLUX IS SMALL 
             ENOUGH TO BE TREATED AS ZERO. IF NOT, PLEASE USE THE SOLUTION 
             CONTROLS TO RESET THE CRITERION FOR ZERO HEAT FLUX.

 COMPATIBILITY ERRORS:
    TYPE                NUMBER EXCEEDING TOLERANCE  MAXIMUM ERROR        IN ELEMENT
 VOLUMETRIC                          0               -7.783E-09               2989
   INSTANCE: ELASTIC-PLASTIC-PLATE-1                                                         
 
	UNSYMMETRIC NEW DIRECT SPARSE SOLVER RUNNING ON
 	1 HOST x 1 MPI RANK PER HOST x 4 THREADS PER RANK
        NUMBER OF EQUATIONS:  45663
        NUMBER OF RHS:        1
        NUMBER OF FLOPS:      2.120e+09
        SOLVER ELAPSED TIME:  39ms

               CONVERGENCE CHECKS FOR EQUILIBRIUM ITERATION     2


 AVERAGE FORCE                      2.208E+04   TIME AVG. FORCE       1.204E+04
 LARGEST SCALED RESIDUAL FORCE       2.43       AT NODE      11879   DOF  2
   INSTANCE: ELASTIC-PLASTIC-PLATE-1                                                         
  CORRESPONDING RESIDUAL FORCE       2.43    
 LARGEST INCREMENT OF DISP.         6.059E-06   AT NODE      11703   DOF  2
   INSTANCE: ELASTIC-PLASTIC-PLATE-1                                                         
 LARGEST CORRECTION TO DISP.        5.291E-09   AT NODE      11632   DOF  1
   INSTANCE: ELASTIC-PLASTIC-PLATE-1                                                         
          THE FORCE     EQUILIBRIUM EQUATIONS HAVE CONVERGED

 AVERAGE HEAT FLUX                  1.123E-12   TIME AVG. HEAT FLUX   1.000E-02
 LARGEST RESIDUAL HEAT FLUX        -3.252E-11   AT NODE       2891   DOF 11
   INSTANCE: ELASTIC-PLASTIC-PLATE-1                                                         
 LARGEST INCREMENT OF TEMP.         0.322       AT NODE        266   DOF 11
   INSTANCE: ELASTIC-PLASTIC-PLATE-1                                                         
 LARGEST CORRECTION TO TEMP.        0.105       AT NODE        266   DOF 11
   INSTANCE: ELASTIC-PLASTIC-PLATE-1                                                         
          THERE IS ZERO HEAT FLUX EVERYWHERE
 

 ***WARNING: THERE IS ZERO HEAT FLUX EVERYWHERE IN THE MODEL BASED ON THE 
             DEFAULT CRITERION. PLEASE CHECK THE VALUE OF THE AVERAGE HEAT FLUX 
             DURING THE CURRENT ITERATION TO VERIFY THAT THE HEAT FLUX IS SMALL 
             ENOUGH TO BE TREATED AS ZERO. IF NOT, PLEASE USE THE SOLUTION 
             CONTROLS TO RESET THE CRITERION FOR ZERO HEAT FLUX.

 COMPATIBILITY ERRORS:
    TYPE                NUMBER EXCEEDING TOLERANCE  MAXIMUM ERROR        IN ELEMENT
 VOLUMETRIC                          0                4.985E-11               2912
   INSTANCE: ELASTIC-PLASTIC-PLATE-1                                                         

 ITERATION SUMMARY FOR THE INCREMENT:   2 TOTAL ITERATIONS, OF WHICH
   0 ARE SEVERE DISCONTINUITY ITERATIONS AND  2 ARE EQUILIBRIUM ITERATIONS.

 TIME INCREMENT COMPLETED  1.000E+03,  FRACTION OF STEP COMPLETED  0.110    
 STEP TIME COMPLETED       1.100E+04,  TOTAL TIME COMPLETED        1.100E+04


  INCREMENT    12 STARTS. ATTEMPT NUMBER  1, TIME INCREMENT  1.000E+03
 
	UNSYMMETRIC NEW DIRECT SPARSE SOLVER RUNNING ON
 	1 HOST x 1 MPI RANK PER HOST x 4 THREADS PER RANK
        NUMBER OF EQUATIONS:  45663
        NUMBER OF RHS:        1
        NUMBER OF FLOPS:      2.119e+09
        SOLVER ELAPSED TIME:  39ms

               CONVERGENCE CHECKS FOR EQUILIBRIUM ITERATION     1


 AVERAGE FORCE                      2.406E+04   TIME AVG. FORCE       1.305E+04
 LARGEST SCALED RESIDUAL FORCE      1.064E+03   AT NODE      10368   DOF  1
   INSTANCE: ELASTIC-PLASTIC-PLATE-1                                                         
  CORRESPONDING RESIDUAL FORCE      1.064E+03
 LARGEST INCREMENT OF DISP.         6.061E-06   AT NODE      11703   DOF  2
   INSTANCE: ELASTIC-PLASTIC-PLATE-1                                                         
 LARGEST CORRECTION TO DISP.        1.255E-07   AT NODE        263   DOF  1
   INSTANCE: ELASTIC-PLASTIC-PLATE-1                                                         
          FORCE     EQUILIBRIUM NOT ACHIEVED WITHIN TOLERANCE.

 AVERAGE HEAT FLUX                  1.225E-12   TIME AVG. HEAT FLUX   1.000E-02
 LARGEST RESIDUAL HEAT FLUX         2.899E-11   AT NODE       2776   DOF 11
   INSTANCE: ELASTIC-PLASTIC-PLATE-1                                                         
 LARGEST INCREMENT OF TEMP.         0.240       AT NODE       2776   DOF 11
   INSTANCE: ELASTIC-PLASTIC-PLATE-1                                                         
 LARGEST CORRECTION TO TEMP.       -0.253       AT NODE       2891   DOF 11
   INSTANCE: ELASTIC-PLASTIC-PLATE-1                                                         
          THERE IS ZERO HEAT FLUX EVERYWHERE
 

 ***WARNING: THERE IS ZERO HEAT FLUX EVERYWHERE IN THE MODEL BASED ON THE 
             DEFAULT CRITERION. PLEASE CHECK THE VALUE OF THE AVERAGE HEAT FLUX 
             DURING THE CURRENT ITERATION TO VERIFY THAT THE HEAT FLUX IS SMALL 
             ENOUGH TO BE TREATED AS ZERO. IF NOT, PLEASE USE THE SOLUTION 
             CONTROLS TO RESET THE CRITERION FOR ZERO HEAT FLUX.

 COMPATIBILITY ERRORS:
    TYPE                NUMBER EXCEEDING TOLERANCE  MAXIMUM ERROR        IN ELEMENT
 VOLUMETRIC                          0               -5.985E-09               3029
   INSTANCE: ELASTIC-PLASTIC-PLATE-1                                                         
 
	UNSYMMETRIC NEW DIRECT SPARSE SOLVER RUNNING ON
 	1 HOST x 1 MPI RANK PER HOST x 4 THREADS PER RANK
        NUMBER OF EQUATIONS:  45663
        NUMBER OF RHS:        1
        NUMBER OF FLOPS:      2.122e+09
        SOLVER ELAPSED TIME:  39ms

               CONVERGENCE CHECKS FOR EQUILIBRIUM ITERATION     2


 AVERAGE FORCE                      2.406E+04   TIME AVG. FORCE       1.305E+04
 LARGEST SCALED RESIDUAL FORCE       3.65       AT NODE      10368   DOF  2
   INSTANCE: ELASTIC-PLASTIC-PLATE-1                                                         
  CORRESPONDING RESIDUAL FORCE       3.65    
 LARGEST INCREMENT OF DISP.         6.061E-06   AT NODE      11703   DOF  2
   INSTANCE: ELASTIC-PLASTIC-PLATE-1                                                         
 LARGEST CORRECTION TO DISP.        5.074E-09   AT NODE       2977   DOF  2
   INSTANCE: ELASTIC-PLASTIC-PLATE-1                                                         
          THE FORCE     EQUILIBRIUM EQUATIONS HAVE CONVERGED

 AVERAGE HEAT FLUX                  1.223E-12   TIME AVG. HEAT FLUX   1.000E-02
 LARGEST RESIDUAL HEAT FLUX        -5.269E-11   AT NODE       2776   DOF 11
   INSTANCE: ELASTIC-PLASTIC-PLATE-1                                                         
 LARGEST INCREMENT OF TEMP.         0.338       AT NODE       2776   DOF 11
   INSTANCE: ELASTIC-PLASTIC-PLATE-1                                                         
 LARGEST CORRECTION TO TEMP.        0.112       AT NODE        266   DOF 11
   INSTANCE: ELASTIC-PLASTIC-PLATE-1                                                         
          THERE IS ZERO HEAT FLUX EVERYWHERE
 

 ***WARNING: THERE IS ZERO HEAT FLUX EVERYWHERE IN THE MODEL BASED ON THE 
             DEFAULT CRITERION. PLEASE CHECK THE VALUE OF THE AVERAGE HEAT FLUX 
             DURING THE CURRENT ITERATION TO VERIFY THAT THE HEAT FLUX IS SMALL 
             ENOUGH TO BE TREATED AS ZERO. IF NOT, PLEASE USE THE SOLUTION 
             CONTROLS TO RESET THE CRITERION FOR ZERO HEAT FLUX.

 COMPATIBILITY ERRORS:
    TYPE                NUMBER EXCEEDING TOLERANCE  MAXIMUM ERROR        IN ELEMENT
 VOLUMETRIC                          0                8.592E-11               3029
   INSTANCE: ELASTIC-PLASTIC-PLATE-1                                                         

 ITERATION SUMMARY FOR THE INCREMENT:   2 TOTAL ITERATIONS, OF WHICH
   0 ARE SEVERE DISCONTINUITY ITERATIONS AND  2 ARE EQUILIBRIUM ITERATIONS.

 TIME INCREMENT COMPLETED  1.000E+03,  FRACTION OF STEP COMPLETED  0.120    
 STEP TIME COMPLETED       1.200E+04,  TOTAL TIME COMPLETED        1.200E+04


  INCREMENT    13 STARTS. ATTEMPT NUMBER  1, TIME INCREMENT  1.000E+03
 
	UNSYMMETRIC NEW DIRECT SPARSE SOLVER RUNNING ON
 	1 HOST x 1 MPI RANK PER HOST x 4 THREADS PER RANK
        NUMBER OF EQUATIONS:  45663
        NUMBER OF RHS:        1
        NUMBER OF FLOPS:      2.123e+09
        SOLVER ELAPSED TIME:  38ms

               CONVERGENCE CHECKS FOR EQUILIBRIUM ITERATION     1


 AVERAGE FORCE                      2.603E+04   TIME AVG. FORCE       1.404E+04
 LARGEST SCALED RESIDUAL FORCE      -776.       AT NODE      12079   DOF  1
   INSTANCE: ELASTIC-PLASTIC-PLATE-1                                                         
  CORRESPONDING RESIDUAL FORCE      -776.    
 LARGEST INCREMENT OF DISP.         6.064E-06   AT NODE      11703   DOF  2
   INSTANCE: ELASTIC-PLASTIC-PLATE-1                                                         
 LARGEST CORRECTION TO DISP.        1.366E-07   AT NODE        261   DOF  1
   INSTANCE: ELASTIC-PLASTIC-PLATE-1                                                         
          FORCE     EQUILIBRIUM NOT ACHIEVED WITHIN TOLERANCE.

 AVERAGE HEAT FLUX                  1.319E-12   TIME AVG. HEAT FLUX   1.000E-02
 LARGEST RESIDUAL HEAT FLUX         1.545E-11   AT NODE       2745   DOF 11
   INSTANCE: ELASTIC-PLASTIC-PLATE-1                                                         
 LARGEST INCREMENT OF TEMP.         0.225       AT NODE       2881   DOF 11
   INSTANCE: ELASTIC-PLASTIC-PLATE-1                                                         
 LARGEST CORRECTION TO TEMP.       -0.349       AT NODE       2776   DOF 11
   INSTANCE: ELASTIC-PLASTIC-PLATE-1                                                         
          THERE IS ZERO HEAT FLUX EVERYWHERE
 

 ***WARNING: THERE IS ZERO HEAT FLUX EVERYWHERE IN THE MODEL BASED ON THE 
             DEFAULT CRITERION. PLEASE CHECK THE VALUE OF THE AVERAGE HEAT FLUX 
             DURING THE CURRENT ITERATION TO VERIFY THAT THE HEAT FLUX IS SMALL 
             ENOUGH TO BE TREATED AS ZERO. IF NOT, PLEASE USE THE SOLUTION 
             CONTROLS TO RESET THE CRITERION FOR ZERO HEAT FLUX.

 COMPATIBILITY ERRORS:
    TYPE                NUMBER EXCEEDING TOLERANCE  MAXIMUM ERROR        IN ELEMENT
 VOLUMETRIC                          0               -5.916E-09               3009
   INSTANCE: ELASTIC-PLASTIC-PLATE-1                                                         
 
	UNSYMMETRIC NEW DIRECT SPARSE SOLVER RUNNING ON
 	1 HOST x 1 MPI RANK PER HOST x 4 THREADS PER RANK
        NUMBER OF EQUATIONS:  45663
        NUMBER OF RHS:        1
        NUMBER OF FLOPS:      2.128e+09
        SOLVER ELAPSED TIME:  39ms

               CONVERGENCE CHECKS FOR EQUILIBRIUM ITERATION     2


 AVERAGE FORCE                      2.603E+04   TIME AVG. FORCE       1.404E+04
 LARGEST SCALED RESIDUAL FORCE       2.04       AT NODE      10372   DOF  2
   INSTANCE: ELASTIC-PLASTIC-PLATE-1                                                         
  CORRESPONDING RESIDUAL FORCE       2.04    
 LARGEST INCREMENT OF DISP.         6.064E-06   AT NODE      11703   DOF  2
   INSTANCE: ELASTIC-PLASTIC-PLATE-1                                                         
 LARGEST CORRECTION TO DISP.        4.528E-09   AT NODE        261   DOF  1
   INSTANCE: ELASTIC-PLASTIC-PLATE-1                                                         
          THE FORCE     EQUILIBRIUM EQUATIONS HAVE CONVERGED

 AVERAGE HEAT FLUX                  1.318E-12   TIME AVG. HEAT FLUX   1.000E-02
 LARGEST RESIDUAL HEAT FLUX        -4.385E-11   AT NODE       2881   DOF 11
   INSTANCE: ELASTIC-PLASTIC-PLATE-1                                                         
 LARGEST INCREMENT OF TEMP.         0.286       AT NODE       2881   DOF 11
   INSTANCE: ELASTIC-PLASTIC-PLATE-1                                                         
 LARGEST CORRECTION TO TEMP.        8.977E-02   AT NODE        267   DOF 11
   INSTANCE: ELASTIC-PLASTIC-PLATE-1                                                         
          THERE IS ZERO HEAT FLUX EVERYWHERE
 

 ***WARNING: THERE IS ZERO HEAT FLUX EVERYWHERE IN THE MODEL BASED ON THE 
             DEFAULT CRITERION. PLEASE CHECK THE VALUE OF THE AVERAGE HEAT FLUX 
             DURING THE CURRENT ITERATION TO VERIFY THAT THE HEAT FLUX IS SMALL 
             ENOUGH TO BE TREATED AS ZERO. IF NOT, PLEASE USE THE SOLUTION 
             CONTROLS TO RESET THE CRITERION FOR ZERO HEAT FLUX.

 COMPATIBILITY ERRORS:
    TYPE                NUMBER EXCEEDING TOLERANCE  MAXIMUM ERROR        IN ELEMENT
 VOLUMETRIC                          0                4.005E-11               2498
   INSTANCE: ELASTIC-PLASTIC-PLATE-1                                                         

 ITERATION SUMMARY FOR THE INCREMENT:   2 TOTAL ITERATIONS, OF WHICH
   0 ARE SEVERE DISCONTINUITY ITERATIONS AND  2 ARE EQUILIBRIUM ITERATIONS.

 TIME INCREMENT COMPLETED  1.000E+03,  FRACTION OF STEP COMPLETED  0.130    
 STEP TIME COMPLETED       1.300E+04,  TOTAL TIME COMPLETED        1.300E+04


  INCREMENT    14 STARTS. ATTEMPT NUMBER  1, TIME INCREMENT  1.000E+03
 
	UNSYMMETRIC NEW DIRECT SPARSE SOLVER RUNNING ON
 	1 HOST x 1 MPI RANK PER HOST x 4 THREADS PER RANK
        NUMBER OF EQUATIONS:  45663
        NUMBER OF RHS:        1
        NUMBER OF FLOPS:      2.136e+09
        SOLVER ELAPSED TIME:  41ms

               CONVERGENCE CHECKS FOR EQUILIBRIUM ITERATION     1


 AVERAGE FORCE                      2.798E+04   TIME AVG. FORCE       1.504E+04
 LARGEST SCALED RESIDUAL FORCE       709.       AT NODE      12208   DOF  2
   INSTANCE: ELASTIC-PLASTIC-PLATE-1                                                         
  CORRESPONDING RESIDUAL FORCE       709.    
 LARGEST INCREMENT OF DISP.         6.067E-06   AT NODE          5   DOF  2
   INSTANCE: ELASTIC-PLASTIC-PLATE-1                                                         
 LARGEST CORRECTION TO DISP.        1.425E-07   AT NODE      10354   DOF  1
   INSTANCE: ELASTIC-PLASTIC-PLATE-1                                                         
          FORCE     EQUILIBRIUM NOT ACHIEVED WITHIN TOLERANCE.

 AVERAGE HEAT FLUX                  1.419E-12   TIME AVG. HEAT FLUX   1.000E-02
 LARGEST RESIDUAL HEAT FLUX         2.255E-11   AT NODE       2745   DOF 11
   INSTANCE: ELASTIC-PLASTIC-PLATE-1                                                         
 LARGEST INCREMENT OF TEMP.         0.194       AT NODE       4314   DOF 11
   INSTANCE: ELASTIC-PLASTIC-PLATE-1                                                         
 LARGEST CORRECTION TO TEMP.       -0.332       AT NODE       2881   DOF 11
   INSTANCE: ELASTIC-PLASTIC-PLATE-1                                                         
          THERE IS ZERO HEAT FLUX EVERYWHERE
 

 ***WARNING: THERE IS ZERO HEAT FLUX EVERYWHERE IN THE MODEL BASED ON THE 
             DEFAULT CRITERION. PLEASE CHECK THE VALUE OF THE AVERAGE HEAT FLUX 
             DURING THE CURRENT ITERATION TO VERIFY THAT THE HEAT FLUX IS SMALL 
             ENOUGH TO BE TREATED AS ZERO. IF NOT, PLEASE USE THE SOLUTION 
             CONTROLS TO RESET THE CRITERION FOR ZERO HEAT FLUX.

 COMPATIBILITY ERRORS:
    TYPE                NUMBER EXCEEDING TOLERANCE  MAXIMUM ERROR        IN ELEMENT
 VOLUMETRIC                          0               -4.025E-09               3058
   INSTANCE: ELASTIC-PLASTIC-PLATE-1                                                         
 
	UNSYMMETRIC NEW DIRECT SPARSE SOLVER RUNNING ON
 	1 HOST x 1 MPI RANK PER HOST x 4 THREADS PER RANK
        NUMBER OF EQUATIONS:  45663
        NUMBER OF RHS:        1
        NUMBER OF FLOPS:      2.136e+09
        SOLVER ELAPSED TIME:  38ms

               CONVERGENCE CHECKS FOR EQUILIBRIUM ITERATION     2


 AVERAGE FORCE                      2.799E+04   TIME AVG. FORCE       1.504E+04
 LARGEST SCALED RESIDUAL FORCE      -2.05       AT NODE      12208   DOF  2
   INSTANCE: ELASTIC-PLASTIC-PLATE-1                                                         
  CORRESPONDING RESIDUAL FORCE      -2.05    
 LARGEST INCREMENT OF DISP.         6.067E-06   AT NODE          5   DOF  2
   INSTANCE: ELASTIC-PLASTIC-PLATE-1                                                         
 LARGEST CORRECTION TO DISP.        3.693E-09   AT NODE      10354   DOF  1
   INSTANCE: ELASTIC-PLASTIC-PLATE-1                                                         
          THE FORCE     EQUILIBRIUM EQUATIONS HAVE CONVERGED

 AVERAGE HEAT FLUX                  1.416E-12   TIME AVG. HEAT FLUX   1.000E-02
 LARGEST RESIDUAL HEAT FLUX        -3.738E-11   AT NODE       2745   DOF 11
   INSTANCE: ELASTIC-PLASTIC-PLATE-1                                                         
 LARGEST INCREMENT OF TEMP.         0.266       AT NODE       4312   DOF 11
   INSTANCE: ELASTIC-PLASTIC-PLATE-1                                                         
 LARGEST CORRECTION TO TEMP.        8.510E-02   AT NODE       2745   DOF 11
   INSTANCE: ELASTIC-PLASTIC-PLATE-1                                                         
          THERE IS ZERO HEAT FLUX EVERYWHERE
 

 ***WARNING: THERE IS ZERO HEAT FLUX EVERYWHERE IN THE MODEL BASED ON THE 
             DEFAULT CRITERION. PLEASE CHECK THE VALUE OF THE AVERAGE HEAT FLUX 
             DURING THE CURRENT ITERATION TO VERIFY THAT THE HEAT FLUX IS SMALL 
             ENOUGH TO BE TREATED AS ZERO. IF NOT, PLEASE USE THE SOLUTION 
             CONTROLS TO RESET THE CRITERION FOR ZERO HEAT FLUX.

 COMPATIBILITY ERRORS:
    TYPE                NUMBER EXCEEDING TOLERANCE  MAXIMUM ERROR        IN ELEMENT
 VOLUMETRIC                          0                5.233E-11               2493
   INSTANCE: ELASTIC-PLASTIC-PLATE-1                                                         

 ITERATION SUMMARY FOR THE INCREMENT:   2 TOTAL ITERATIONS, OF WHICH
   0 ARE SEVERE DISCONTINUITY ITERATIONS AND  2 ARE EQUILIBRIUM ITERATIONS.

 TIME INCREMENT COMPLETED  1.000E+03,  FRACTION OF STEP COMPLETED  0.140    
 STEP TIME COMPLETED       1.400E+04,  TOTAL TIME COMPLETED        1.400E+04


  INCREMENT    15 STARTS. ATTEMPT NUMBER  1, TIME INCREMENT  1.000E+03
 
	UNSYMMETRIC NEW DIRECT SPARSE SOLVER RUNNING ON
 	1 HOST x 1 MPI RANK PER HOST x 4 THREADS PER RANK
        NUMBER OF EQUATIONS:  45663
        NUMBER OF RHS:        1
        NUMBER OF FLOPS:      2.129e+09
        SOLVER ELAPSED TIME:  44ms

               CONVERGENCE CHECKS FOR EQUILIBRIUM ITERATION     1


 AVERAGE FORCE                      2.993E+04   TIME AVG. FORCE       1.603E+04
 LARGEST SCALED RESIDUAL FORCE       483.       AT NODE       9004   DOF  2
   INSTANCE: ELASTIC-PLASTIC-PLATE-1                                                         
  CORRESPONDING RESIDUAL FORCE       483.    
 LARGEST INCREMENT OF DISP.         6.069E-06   AT NODE          5   DOF  2
   INSTANCE: ELASTIC-PLASTIC-PLATE-1                                                         
 LARGEST CORRECTION TO DISP.        1.310E-07   AT NODE      10354   DOF  1
   INSTANCE: ELASTIC-PLASTIC-PLATE-1                                                         
          FORCE     EQUILIBRIUM NOT ACHIEVED WITHIN TOLERANCE.

 AVERAGE HEAT FLUX                  1.511E-12   TIME AVG. HEAT FLUX   1.000E-02
 LARGEST RESIDUAL HEAT FLUX         1.589E-11   AT NODE       2775   DOF 11
   INSTANCE: ELASTIC-PLASTIC-PLATE-1                                                         
 LARGEST INCREMENT OF TEMP.         0.180       AT NODE       2729   DOF 11
   INSTANCE: ELASTIC-PLASTIC-PLATE-1                                                         
 LARGEST CORRECTION TO TEMP.       -0.277       AT NODE       4314   DOF 11
   INSTANCE: ELASTIC-PLASTIC-PLATE-1                                                         
          THERE IS ZERO HEAT FLUX EVERYWHERE
 

 ***WARNING: THERE IS ZERO HEAT FLUX EVERYWHERE IN THE MODEL BASED ON THE 
             DEFAULT CRITERION. PLEASE CHECK THE VALUE OF THE AVERAGE HEAT FLUX 
             DURING THE CURRENT ITERATION TO VERIFY THAT THE HEAT FLUX IS SMALL 
             ENOUGH TO BE TREATED AS ZERO. IF NOT, PLEASE USE THE SOLUTION 
             CONTROLS TO RESET THE CRITERION FOR ZERO HEAT FLUX.

 COMPATIBILITY ERRORS:
    TYPE                NUMBER EXCEEDING TOLERANCE  MAXIMUM ERROR        IN ELEMENT
 VOLUMETRIC                          0               -5.155E-09               3243
   INSTANCE: ELASTIC-PLASTIC-PLATE-1                                                         
 
	UNSYMMETRIC NEW DIRECT SPARSE SOLVER RUNNING ON
 	1 HOST x 1 MPI RANK PER HOST x 4 THREADS PER RANK
        NUMBER OF EQUATIONS:  45663
        NUMBER OF RHS:        1
        NUMBER OF FLOPS:      2.133e+09
        SOLVER ELAPSED TIME:  54ms

               CONVERGENCE CHECKS FOR EQUILIBRIUM ITERATION     2


 AVERAGE FORCE                      2.994E+04   TIME AVG. FORCE       1.603E+04
 LARGEST SCALED RESIDUAL FORCE      -1.45       AT NODE       9004   DOF  2
   INSTANCE: ELASTIC-PLASTIC-PLATE-1                                                         
  CORRESPONDING RESIDUAL FORCE      -1.45    
 LARGEST INCREMENT OF DISP.         6.069E-06   AT NODE          5   DOF  2
   INSTANCE: ELASTIC-PLASTIC-PLATE-1                                                         
 LARGEST CORRECTION TO DISP.        2.566E-09   AT NODE      10354   DOF  1
   INSTANCE: ELASTIC-PLASTIC-PLATE-1                                                         
          THE FORCE     EQUILIBRIUM EQUATIONS HAVE CONVERGED

 AVERAGE HEAT FLUX                  1.510E-12   TIME AVG. HEAT FLUX   1.000E-02
 LARGEST RESIDUAL HEAT FLUX        -2.756E-11   AT NODE       2729   DOF 11
   INSTANCE: ELASTIC-PLASTIC-PLATE-1                                                         
 LARGEST INCREMENT OF TEMP.         0.241       AT NODE       2729   DOF 11
   INSTANCE: ELASTIC-PLASTIC-PLATE-1                                                         
 LARGEST CORRECTION TO TEMP.        7.839E-02   AT NODE        268   DOF 11
   INSTANCE: ELASTIC-PLASTIC-PLATE-1                                                         
          THERE IS ZERO HEAT FLUX EVERYWHERE
 

 ***WARNING: THERE IS ZERO HEAT FLUX EVERYWHERE IN THE MODEL BASED ON THE 
             DEFAULT CRITERION. PLEASE CHECK THE VALUE OF THE AVERAGE HEAT FLUX 
             DURING THE CURRENT ITERATION TO VERIFY THAT THE HEAT FLUX IS SMALL 
             ENOUGH TO BE TREATED AS ZERO. IF NOT, PLEASE USE THE SOLUTION 
             CONTROLS TO RESET THE CRITERION FOR ZERO HEAT FLUX.

 COMPATIBILITY ERRORS:
    TYPE                NUMBER EXCEEDING TOLERANCE  MAXIMUM ERROR        IN ELEMENT
 VOLUMETRIC                          0               -8.611E-12               2118
   INSTANCE: ELASTIC-PLASTIC-PLATE-1                                                         

 ITERATION SUMMARY FOR THE INCREMENT:   2 TOTAL ITERATIONS, OF WHICH
   0 ARE SEVERE DISCONTINUITY ITERATIONS AND  2 ARE EQUILIBRIUM ITERATIONS.

 TIME INCREMENT COMPLETED  1.000E+03,  FRACTION OF STEP COMPLETED  0.150    
 STEP TIME COMPLETED       1.500E+04,  TOTAL TIME COMPLETED        1.500E+04


  INCREMENT    16 STARTS. ATTEMPT NUMBER  1, TIME INCREMENT  1.000E+03
 
	UNSYMMETRIC NEW DIRECT SPARSE SOLVER RUNNING ON
 	1 HOST x 1 MPI RANK PER HOST x 4 THREADS PER RANK
        NUMBER OF EQUATIONS:  45663
        NUMBER OF RHS:        1
        NUMBER OF FLOPS:      2.134e+09
        SOLVER ELAPSED TIME:  44ms

               CONVERGENCE CHECKS FOR EQUILIBRIUM ITERATION     1


 AVERAGE FORCE                      3.187E+04   TIME AVG. FORCE       1.702E+04
 LARGEST SCALED RESIDUAL FORCE      -941.       AT NODE      12113   DOF  2
   INSTANCE: ELASTIC-PLASTIC-PLATE-1                                                         
  CORRESPONDING RESIDUAL FORCE      -941.    
 LARGEST INCREMENT OF DISP.         6.071E-06   AT NODE          5   DOF  2
   INSTANCE: ELASTIC-PLASTIC-PLATE-1                                                         
 LARGEST CORRECTION TO DISP.        1.426E-07   AT NODE        260   DOF  1
   INSTANCE: ELASTIC-PLASTIC-PLATE-1                                                         
          FORCE     EQUILIBRIUM NOT ACHIEVED WITHIN TOLERANCE.

 AVERAGE HEAT FLUX                  1.608E-12   TIME AVG. HEAT FLUX   1.000E-02
 LARGEST RESIDUAL HEAT FLUX         1.591E-11   AT NODE       2890   DOF 11
   INSTANCE: ELASTIC-PLASTIC-PLATE-1                                                         
 LARGEST INCREMENT OF TEMP.         0.155       AT NODE       2890   DOF 11
   INSTANCE: ELASTIC-PLASTIC-PLATE-1                                                         
 LARGEST CORRECTION TO TEMP.       -0.238       AT NODE       2729   DOF 11
   INSTANCE: ELASTIC-PLASTIC-PLATE-1                                                         
          THERE IS ZERO HEAT FLUX EVERYWHERE
 

 ***WARNING: THERE IS ZERO HEAT FLUX EVERYWHERE IN THE MODEL BASED ON THE 
             DEFAULT CRITERION. PLEASE CHECK THE VALUE OF THE AVERAGE HEAT FLUX 
             DURING THE CURRENT ITERATION TO VERIFY THAT THE HEAT FLUX IS SMALL 
             ENOUGH TO BE TREATED AS ZERO. IF NOT, PLEASE USE THE SOLUTION 
             CONTROLS TO RESET THE CRITERION FOR ZERO HEAT FLUX.

 COMPATIBILITY ERRORS:
    TYPE                NUMBER EXCEEDING TOLERANCE  MAXIMUM ERROR        IN ELEMENT
 VOLUMETRIC                          0               -3.198E-09               3058
   INSTANCE: ELASTIC-PLASTIC-PLATE-1                                                         
 
	UNSYMMETRIC NEW DIRECT SPARSE SOLVER RUNNING ON
 	1 HOST x 1 MPI RANK PER HOST x 4 THREADS PER RANK
        NUMBER OF EQUATIONS:  45663
        NUMBER OF RHS:        1
        NUMBER OF FLOPS:      2.135e+09
        SOLVER ELAPSED TIME:  42ms

               CONVERGENCE CHECKS FOR EQUILIBRIUM ITERATION     2


 AVERAGE FORCE                      3.187E+04   TIME AVG. FORCE       1.702E+04
 LARGEST SCALED RESIDUAL FORCE       2.68       AT NODE      12113   DOF  2
   INSTANCE: ELASTIC-PLASTIC-PLATE-1                                                         
  CORRESPONDING RESIDUAL FORCE       2.68    
 LARGEST INCREMENT OF DISP.         6.071E-06   AT NODE          5   DOF  2
   INSTANCE: ELASTIC-PLASTIC-PLATE-1                                                         
 LARGEST CORRECTION TO DISP.        3.914E-09   AT NODE      11712   DOF  1
   INSTANCE: ELASTIC-PLASTIC-PLATE-1                                                         
          THE FORCE     EQUILIBRIUM EQUATIONS HAVE CONVERGED

 AVERAGE HEAT FLUX                  1.606E-12   TIME AVG. HEAT FLUX   1.000E-02
 LARGEST RESIDUAL HEAT FLUX         3.354E-11   AT NODE       2717   DOF 11
   INSTANCE: ELASTIC-PLASTIC-PLATE-1                                                         
 LARGEST INCREMENT OF TEMP.         0.221       AT NODE       2890   DOF 11
   INSTANCE: ELASTIC-PLASTIC-PLATE-1                                                         
 LARGEST CORRECTION TO TEMP.        6.633E-02   AT NODE       2890   DOF 11
   INSTANCE: ELASTIC-PLASTIC-PLATE-1                                                         
          THERE IS ZERO HEAT FLUX EVERYWHERE
 

 ***WARNING: THERE IS ZERO HEAT FLUX EVERYWHERE IN THE MODEL BASED ON THE 
             DEFAULT CRITERION. PLEASE CHECK THE VALUE OF THE AVERAGE HEAT FLUX 
             DURING THE CURRENT ITERATION TO VERIFY THAT THE HEAT FLUX IS SMALL 
             ENOUGH TO BE TREATED AS ZERO. IF NOT, PLEASE USE THE SOLUTION 
             CONTROLS TO RESET THE CRITERION FOR ZERO HEAT FLUX.

 COMPATIBILITY ERRORS:
    TYPE                NUMBER EXCEEDING TOLERANCE  MAXIMUM ERROR        IN ELEMENT
 VOLUMETRIC                          0               -2.485E-11               2492
   INSTANCE: ELASTIC-PLASTIC-PLATE-1                                                         

 ITERATION SUMMARY FOR THE INCREMENT:   2 TOTAL ITERATIONS, OF WHICH
   0 ARE SEVERE DISCONTINUITY ITERATIONS AND  2 ARE EQUILIBRIUM ITERATIONS.

 TIME INCREMENT COMPLETED  1.000E+03,  FRACTION OF STEP COMPLETED  0.160    
 STEP TIME COMPLETED       1.600E+04,  TOTAL TIME COMPLETED        1.600E+04


  INCREMENT    17 STARTS. ATTEMPT NUMBER  1, TIME INCREMENT  1.000E+03
 
	UNSYMMETRIC NEW DIRECT SPARSE SOLVER RUNNING ON
 	1 HOST x 1 MPI RANK PER HOST x 4 THREADS PER RANK
        NUMBER OF EQUATIONS:  45663
        NUMBER OF RHS:        1
        NUMBER OF FLOPS:      2.142e+09
        SOLVER ELAPSED TIME:  52ms

               CONVERGENCE CHECKS FOR EQUILIBRIUM ITERATION     1


 AVERAGE FORCE                      3.379E+04   TIME AVG. FORCE       1.801E+04
 LARGEST SCALED RESIDUAL FORCE       730.       AT NODE      11712   DOF  1
   INSTANCE: ELASTIC-PLASTIC-PLATE-1                                                         
  CORRESPONDING RESIDUAL FORCE       730.    
 LARGEST INCREMENT OF DISP.         6.072E-06   AT NODE          5   DOF  2
   INSTANCE: ELASTIC-PLASTIC-PLATE-1                                                         
 LARGEST CORRECTION TO DISP.        1.455E-07   AT NODE      11712   DOF  1
   INSTANCE: ELASTIC-PLASTIC-PLATE-1                                                         
          FORCE     EQUILIBRIUM NOT ACHIEVED WITHIN TOLERANCE.

 AVERAGE HEAT FLUX                  1.701E-12   TIME AVG. HEAT FLUX   1.000E-02
 LARGEST RESIDUAL HEAT FLUX         1.883E-11   AT NODE       2717   DOF 11
   INSTANCE: ELASTIC-PLASTIC-PLATE-1                                                         
 LARGEST INCREMENT OF TEMP.         0.118       AT NODE       3003   DOF 11
   INSTANCE: ELASTIC-PLASTIC-PLATE-1                                                         
 LARGEST CORRECTION TO TEMP.       -0.236       AT NODE       3022   DOF 11
   INSTANCE: ELASTIC-PLASTIC-PLATE-1                                                         
          THERE IS ZERO HEAT FLUX EVERYWHERE
 

 ***WARNING: THERE IS ZERO HEAT FLUX EVERYWHERE IN THE MODEL BASED ON THE 
             DEFAULT CRITERION. PLEASE CHECK THE VALUE OF THE AVERAGE HEAT FLUX 
             DURING THE CURRENT ITERATION TO VERIFY THAT THE HEAT FLUX IS SMALL 
             ENOUGH TO BE TREATED AS ZERO. IF NOT, PLEASE USE THE SOLUTION 
             CONTROLS TO RESET THE CRITERION FOR ZERO HEAT FLUX.

 COMPATIBILITY ERRORS:
    TYPE                NUMBER EXCEEDING TOLERANCE  MAXIMUM ERROR        IN ELEMENT
 VOLUMETRIC                          0               -3.671E-09               2119
   INSTANCE: ELASTIC-PLASTIC-PLATE-1                                                         
 
	UNSYMMETRIC NEW DIRECT SPARSE SOLVER RUNNING ON
 	1 HOST x 1 MPI RANK PER HOST x 4 THREADS PER RANK
        NUMBER OF EQUATIONS:  45663
        NUMBER OF RHS:        1
        NUMBER OF FLOPS:      2.142e+09
        SOLVER ELAPSED TIME:  40ms

               CONVERGENCE CHECKS FOR EQUILIBRIUM ITERATION     2


 AVERAGE FORCE                      3.379E+04   TIME AVG. FORCE       1.801E+04
 LARGEST SCALED RESIDUAL FORCE      -18.6       AT NODE      12440   DOF  2
   INSTANCE: ELASTIC-PLASTIC-PLATE-1                                                         
  CORRESPONDING RESIDUAL FORCE      -18.6    
 LARGEST INCREMENT OF DISP.         6.072E-06   AT NODE          5   DOF  2
   INSTANCE: ELASTIC-PLASTIC-PLATE-1                                                         
 LARGEST CORRECTION TO DISP.        1.034E-08   AT NODE      11712   DOF  1
   INSTANCE: ELASTIC-PLASTIC-PLATE-1                                                         
          THE FORCE     EQUILIBRIUM EQUATIONS HAVE CONVERGED

 AVERAGE HEAT FLUX                  1.700E-12   TIME AVG. HEAT FLUX   1.000E-02
 LARGEST RESIDUAL HEAT FLUX         2.836E-11   AT NODE       2959   DOF 11
   INSTANCE: ELASTIC-PLASTIC-PLATE-1                                                         
 LARGEST INCREMENT OF TEMP.         0.179       AT NODE       2774   DOF 11
   INSTANCE: ELASTIC-PLASTIC-PLATE-1                                                         
 LARGEST CORRECTION TO TEMP.        6.679E-02   AT NODE        269   DOF 11
   INSTANCE: ELASTIC-PLASTIC-PLATE-1                                                         
          THERE IS ZERO HEAT FLUX EVERYWHERE
 

[...]
 
	UNSYMMETRIC NEW DIRECT SPARSE SOLVER RUNNING ON
 	1 HOST x 1 MPI RANK PER HOST x 4 THREADS PER RANK
        NUMBER OF EQUATIONS:  45663
        NUMBER OF RHS:        1
        NUMBER OF FLOPS:      1.976e+09
        SOLVER ELAPSED TIME:  40ms

               CONVERGENCE CHECKS FOR EQUILIBRIUM ITERATION     1


 AVERAGE FORCE                      7.879E+04   TIME AVG. FORCE       5.633E+04
 LARGEST SCALED RESIDUAL FORCE       67.0       AT NODE       7885   DOF  2
   INSTANCE: ELASTIC-PLASTIC-PLATE-1                                                         
  CORRESPONDING RESIDUAL FORCE       67.0    
 LARGEST INCREMENT OF DISP.         6.312E-06   AT NODE          5   DOF  2
   INSTANCE: ELASTIC-PLASTIC-PLATE-1                                                         
 LARGEST CORRECTION TO DISP.        5.970E-09   AT NODE       8127   DOF  2
   INSTANCE: ELASTIC-PLASTIC-PLATE-1                                                         
          THE FORCE     EQUILIBRIUM EQUATIONS HAVE CONVERGED

 AVERAGE HEAT FLUX                  4.225E-12   TIME AVG. HEAT FLUX   1.000E-02
 LARGEST RESIDUAL HEAT FLUX        -2.123E-12   AT NODE       3574   DOF 11
   INSTANCE: ELASTIC-PLASTIC-PLATE-1                                                         
 LARGEST INCREMENT OF TEMP.        -4.618E-02   AT NODE        250   DOF 11
   INSTANCE: ELASTIC-PLASTIC-PLATE-1                                                         
 LARGEST CORRECTION TO TEMP.        8.478E-03   AT NODE       3448   DOF 11
   INSTANCE: ELASTIC-PLASTIC-PLATE-1                                                         
          THERE IS ZERO HEAT FLUX EVERYWHERE
 

 ***WARNING: THERE IS ZERO HEAT FLUX EVERYWHERE IN THE MODEL BASED ON THE 
             DEFAULT CRITERION. PLEASE CHECK THE VALUE OF THE AVERAGE HEAT FLUX 
             DURING THE CURRENT ITERATION TO VERIFY THAT THE HEAT FLUX IS SMALL 
             ENOUGH TO BE TREATED AS ZERO. IF NOT, PLEASE USE THE SOLUTION 
             CONTROLS TO RESET THE CRITERION FOR ZERO HEAT FLUX.

 COMPATIBILITY ERRORS:
    TYPE                NUMBER EXCEEDING TOLERANCE  MAXIMUM ERROR        IN ELEMENT
 VOLUMETRIC                          0               -2.158E-11               1701
   INSTANCE: ELASTIC-PLASTIC-PLATE-1                                                         

 ITERATION SUMMARY FOR THE INCREMENT:   1 TOTAL ITERATIONS, OF WHICH
   0 ARE SEVERE DISCONTINUITY ITERATIONS AND  1 ARE EQUILIBRIUM ITERATIONS.

 TIME INCREMENT COMPLETED  1.000E+03,  FRACTION OF STEP COMPLETED  0.940    
 STEP TIME COMPLETED       9.400E+04,  TOTAL TIME COMPLETED        9.400E+04


  INCREMENT    95 STARTS. ATTEMPT NUMBER  1, TIME INCREMENT  1.000E+03
 
	UNSYMMETRIC NEW DIRECT SPARSE SOLVER RUNNING ON
 	1 HOST x 1 MPI RANK PER HOST x 4 THREADS PER RANK
        NUMBER OF EQUATIONS:  45663
        NUMBER OF RHS:        1
        NUMBER OF FLOPS:      1.977e+09
        SOLVER ELAPSED TIME:  41ms

               CONVERGENCE CHECKS FOR EQUILIBRIUM ITERATION     1


 AVERAGE FORCE                      7.903E+04   TIME AVG. FORCE       5.657E+04
 LARGEST SCALED RESIDUAL FORCE       61.5       AT NODE       8366   DOF  2
   INSTANCE: ELASTIC-PLASTIC-PLATE-1                                                         
  CORRESPONDING RESIDUAL FORCE       61.5    
 LARGEST INCREMENT OF DISP.         6.312E-06   AT NODE          5   DOF  2
   INSTANCE: ELASTIC-PLASTIC-PLATE-1                                                         
 LARGEST CORRECTION TO DISP.        5.951E-09   AT NODE      10342   DOF  1
   INSTANCE: ELASTIC-PLASTIC-PLATE-1                                                         
          THE FORCE     EQUILIBRIUM EQUATIONS HAVE CONVERGED

 AVERAGE HEAT FLUX                  4.239E-12   TIME AVG. HEAT FLUX   1.000E-02
 LARGEST RESIDUAL HEAT FLUX         2.193E-12   AT NODE       1948   DOF 11
   INSTANCE: ELASTIC-PLASTIC-PLATE-1                                                         
 LARGEST INCREMENT OF TEMP.        -4.616E-02   AT NODE        250   DOF 11
   INSTANCE: ELASTIC-PLASTIC-PLATE-1                                                         
 LARGEST CORRECTION TO TEMP.       -2.018E-02   AT NODE       4424   DOF 11
   INSTANCE: ELASTIC-PLASTIC-PLATE-1                                                         
          THERE IS ZERO HEAT FLUX EVERYWHERE
 

 ***WARNING: THERE IS ZERO HEAT FLUX EVERYWHERE IN THE MODEL BASED ON THE 
             DEFAULT CRITERION. PLEASE CHECK THE VALUE OF THE AVERAGE HEAT FLUX 
             DURING THE CURRENT ITERATION TO VERIFY THAT THE HEAT FLUX IS SMALL 
             ENOUGH TO BE TREATED AS ZERO. IF NOT, PLEASE USE THE SOLUTION 
             CONTROLS TO RESET THE CRITERION FOR ZERO HEAT FLUX.

 COMPATIBILITY ERRORS:
    TYPE                NUMBER EXCEEDING TOLERANCE  MAXIMUM ERROR        IN ELEMENT
 VOLUMETRIC                          0               -3.326E-11               1581
   INSTANCE: ELASTIC-PLASTIC-PLATE-1                                                         

 ITERATION SUMMARY FOR THE INCREMENT:   1 TOTAL ITERATIONS, OF WHICH
   0 ARE SEVERE DISCONTINUITY ITERATIONS AND  1 ARE EQUILIBRIUM ITERATIONS.

 TIME INCREMENT COMPLETED  1.000E+03,  FRACTION OF STEP COMPLETED  0.950    
 STEP TIME COMPLETED       9.500E+04,  TOTAL TIME COMPLETED        9.500E+04


  INCREMENT    96 STARTS. ATTEMPT NUMBER  1, TIME INCREMENT  1.000E+03
 
	UNSYMMETRIC NEW DIRECT SPARSE SOLVER RUNNING ON
 	1 HOST x 1 MPI RANK PER HOST x 4 THREADS PER RANK
        NUMBER OF EQUATIONS:  45663
        NUMBER OF RHS:        1
        NUMBER OF FLOPS:      1.976e+09
        SOLVER ELAPSED TIME:  39ms

               CONVERGENCE CHECKS FOR EQUILIBRIUM ITERATION     1


 AVERAGE FORCE                      7.926E+04   TIME AVG. FORCE       5.681E+04
 LARGEST SCALED RESIDUAL FORCE       37.2       AT NODE       4066   DOF  2
   INSTANCE: ELASTIC-PLASTIC-PLATE-1                                                         
  CORRESPONDING RESIDUAL FORCE       37.2    
 LARGEST INCREMENT OF DISP.         6.311E-06   AT NODE          5   DOF  2
   INSTANCE: ELASTIC-PLASTIC-PLATE-1                                                         
 LARGEST CORRECTION TO DISP.        5.187E-09   AT NODE        264   DOF  1
   INSTANCE: ELASTIC-PLASTIC-PLATE-1                                                         
          THE FORCE     EQUILIBRIUM EQUATIONS HAVE CONVERGED

 AVERAGE HEAT FLUX                  4.254E-12   TIME AVG. HEAT FLUX   1.000E-02
 LARGEST RESIDUAL HEAT FLUX         2.345E-12   AT NODE       3146   DOF 11
   INSTANCE: ELASTIC-PLASTIC-PLATE-1                                                         
 LARGEST INCREMENT OF TEMP.        -4.582E-02   AT NODE        250   DOF 11
   INSTANCE: ELASTIC-PLASTIC-PLATE-1                                                         
 LARGEST CORRECTION TO TEMP.        1.235E-02   AT NODE       4472   DOF 11
   INSTANCE: ELASTIC-PLASTIC-PLATE-1                                                         
          THERE IS ZERO HEAT FLUX EVERYWHERE
 

 ***WARNING: THERE IS ZERO HEAT FLUX EVERYWHERE IN THE MODEL BASED ON THE 
             DEFAULT CRITERION. PLEASE CHECK THE VALUE OF THE AVERAGE HEAT FLUX 
             DURING THE CURRENT ITERATION TO VERIFY THAT THE HEAT FLUX IS SMALL 
             ENOUGH TO BE TREATED AS ZERO. IF NOT, PLEASE USE THE SOLUTION 
             CONTROLS TO RESET THE CRITERION FOR ZERO HEAT FLUX.

 COMPATIBILITY ERRORS:
    TYPE                NUMBER EXCEEDING TOLERANCE  MAXIMUM ERROR        IN ELEMENT
 VOLUMETRIC                          0               -2.641E-11               1521
   INSTANCE: ELASTIC-PLASTIC-PLATE-1                                                         

 ITERATION SUMMARY FOR THE INCREMENT:   1 TOTAL ITERATIONS, OF WHICH
   0 ARE SEVERE DISCONTINUITY ITERATIONS AND  1 ARE EQUILIBRIUM ITERATIONS.

 TIME INCREMENT COMPLETED  1.000E+03,  FRACTION OF STEP COMPLETED  0.960    
 STEP TIME COMPLETED       9.600E+04,  TOTAL TIME COMPLETED        9.600E+04


  INCREMENT    97 STARTS. ATTEMPT NUMBER  1, TIME INCREMENT  1.000E+03
 
	UNSYMMETRIC NEW DIRECT SPARSE SOLVER RUNNING ON
 	1 HOST x 1 MPI RANK PER HOST x 4 THREADS PER RANK
        NUMBER OF EQUATIONS:  45663
        NUMBER OF RHS:        1
        NUMBER OF FLOPS:      1.975e+09
        SOLVER ELAPSED TIME:  38ms

               CONVERGENCE CHECKS FOR EQUILIBRIUM ITERATION     1


 AVERAGE FORCE                      7.949E+04   TIME AVG. FORCE       5.704E+04
 LARGEST SCALED RESIDUAL FORCE      -66.1       AT NODE       7882   DOF  2
   INSTANCE: ELASTIC-PLASTIC-PLATE-1                                                         
  CORRESPONDING RESIDUAL FORCE      -66.1    
 LARGEST INCREMENT OF DISP.         6.310E-06   AT NODE          5   DOF  2
   INSTANCE: ELASTIC-PLASTIC-PLATE-1                                                         
 LARGEST CORRECTION TO DISP.        5.217E-09   AT NODE        264   DOF  1
   INSTANCE: ELASTIC-PLASTIC-PLATE-1                                                         
          THE FORCE     EQUILIBRIUM EQUATIONS HAVE CONVERGED

 AVERAGE HEAT FLUX                  4.268E-12   TIME AVG. HEAT FLUX   1.000E-02
 LARGEST RESIDUAL HEAT FLUX         2.741E-12   AT NODE       3146   DOF 11
   INSTANCE: ELASTIC-PLASTIC-PLATE-1                                                         
 LARGEST INCREMENT OF TEMP.        -4.553E-02   AT NODE        250   DOF 11
   INSTANCE: ELASTIC-PLASTIC-PLATE-1                                                         
 LARGEST CORRECTION TO TEMP.       -1.220E-02   AT NODE       3488   DOF 11
   INSTANCE: ELASTIC-PLASTIC-PLATE-1                                                         
          THERE IS ZERO HEAT FLUX EVERYWHERE
 

 ***WARNING: THERE IS ZERO HEAT FLUX EVERYWHERE IN THE MODEL BASED ON THE 
             DEFAULT CRITERION. PLEASE CHECK THE VALUE OF THE AVERAGE HEAT FLUX 
             DURING THE CURRENT ITERATION TO VERIFY THAT THE HEAT FLUX IS SMALL 
             ENOUGH TO BE TREATED AS ZERO. IF NOT, PLEASE USE THE SOLUTION 
             CONTROLS TO RESET THE CRITERION FOR ZERO HEAT FLUX.

 COMPATIBILITY ERRORS:
    TYPE                NUMBER EXCEEDING TOLERANCE  MAXIMUM ERROR        IN ELEMENT
 VOLUMETRIC                          0               -2.279E-11               2822
   INSTANCE: ELASTIC-PLASTIC-PLATE-1                                                         

 ITERATION SUMMARY FOR THE INCREMENT:   1 TOTAL ITERATIONS, OF WHICH
   0 ARE SEVERE DISCONTINUITY ITERATIONS AND  1 ARE EQUILIBRIUM ITERATIONS.

 TIME INCREMENT COMPLETED  1.000E+03,  FRACTION OF STEP COMPLETED  0.970    
 STEP TIME COMPLETED       9.700E+04,  TOTAL TIME COMPLETED        9.700E+04


  INCREMENT    98 STARTS. ATTEMPT NUMBER  1, TIME INCREMENT  1.000E+03
 
	UNSYMMETRIC NEW DIRECT SPARSE SOLVER RUNNING ON
 	1 HOST x 1 MPI RANK PER HOST x 4 THREADS PER RANK
        NUMBER OF EQUATIONS:  45663
        NUMBER OF RHS:        1
        NUMBER OF FLOPS:      1.974e+09
        SOLVER ELAPSED TIME:  42ms

               CONVERGENCE CHECKS FOR EQUILIBRIUM ITERATION     1


 AVERAGE FORCE                      7.972E+04   TIME AVG. FORCE       5.727E+04
 LARGEST SCALED RESIDUAL FORCE       49.6       AT NODE       8124   DOF  2
   INSTANCE: ELASTIC-PLASTIC-PLATE-1                                                         
  CORRESPONDING RESIDUAL FORCE       49.6    
 LARGEST INCREMENT OF DISP.         6.309E-06   AT NODE          5   DOF  2
   INSTANCE: ELASTIC-PLASTIC-PLATE-1                                                         
 LARGEST CORRECTION TO DISP.        5.003E-09   AT NODE        264   DOF  1
   INSTANCE: ELASTIC-PLASTIC-PLATE-1                                                         
          THE FORCE     EQUILIBRIUM EQUATIONS HAVE CONVERGED

 AVERAGE HEAT FLUX                  4.282E-12   TIME AVG. HEAT FLUX   1.000E-02
 LARGEST RESIDUAL HEAT FLUX         2.804E-12   AT NODE       3146   DOF 11
   INSTANCE: ELASTIC-PLASTIC-PLATE-1                                                         
 LARGEST INCREMENT OF TEMP.        -4.530E-02   AT NODE        250   DOF 11
   INSTANCE: ELASTIC-PLASTIC-PLATE-1                                                         
 LARGEST CORRECTION TO TEMP.       -1.011E-02   AT NODE       3424   DOF 11
   INSTANCE: ELASTIC-PLASTIC-PLATE-1                                                         
          THERE IS ZERO HEAT FLUX EVERYWHERE
 

 ***WARNING: THERE IS ZERO HEAT FLUX EVERYWHERE IN THE MODEL BASED ON THE 
             DEFAULT CRITERION. PLEASE CHECK THE VALUE OF THE AVERAGE HEAT FLUX 
             DURING THE CURRENT ITERATION TO VERIFY THAT THE HEAT FLUX IS SMALL 
             ENOUGH TO BE TREATED AS ZERO. IF NOT, PLEASE USE THE SOLUTION 
             CONTROLS TO RESET THE CRITERION FOR ZERO HEAT FLUX.

 COMPATIBILITY ERRORS:
    TYPE                NUMBER EXCEEDING TOLERANCE  MAXIMUM ERROR        IN ELEMENT
 VOLUMETRIC                          0               -1.363E-11               1401
   INSTANCE: ELASTIC-PLASTIC-PLATE-1                                                         

 ITERATION SUMMARY FOR THE INCREMENT:   1 TOTAL ITERATIONS, OF WHICH
   0 ARE SEVERE DISCONTINUITY ITERATIONS AND  1 ARE EQUILIBRIUM ITERATIONS.

 TIME INCREMENT COMPLETED  1.000E+03,  FRACTION OF STEP COMPLETED  0.980    
 STEP TIME COMPLETED       9.800E+04,  TOTAL TIME COMPLETED        9.800E+04


  INCREMENT    99 STARTS. ATTEMPT NUMBER  1, TIME INCREMENT  1.000E+03
 
	UNSYMMETRIC NEW DIRECT SPARSE SOLVER RUNNING ON
 	1 HOST x 1 MPI RANK PER HOST x 4 THREADS PER RANK
        NUMBER OF EQUATIONS:  45663
        NUMBER OF RHS:        1
        NUMBER OF FLOPS:      1.974e+09
        SOLVER ELAPSED TIME:  40ms

               CONVERGENCE CHECKS FOR EQUILIBRIUM ITERATION     1


 AVERAGE FORCE                      7.995E+04   TIME AVG. FORCE       5.750E+04
 LARGEST SCALED RESIDUAL FORCE      -26.8       AT NODE       7882   DOF  2
   INSTANCE: ELASTIC-PLASTIC-PLATE-1                                                         
  CORRESPONDING RESIDUAL FORCE      -26.8    
 LARGEST INCREMENT OF DISP.         6.308E-06   AT NODE          5   DOF  2
   INSTANCE: ELASTIC-PLASTIC-PLATE-1                                                         
 LARGEST CORRECTION TO DISP.        5.092E-09   AT NODE      11882   DOF  1
   INSTANCE: ELASTIC-PLASTIC-PLATE-1                                                         
          THE FORCE     EQUILIBRIUM EQUATIONS HAVE CONVERGED

 AVERAGE HEAT FLUX                  4.294E-12   TIME AVG. HEAT FLUX   1.000E-02
 LARGEST RESIDUAL HEAT FLUX         2.452E-12   AT NODE       2592   DOF 11
   INSTANCE: ELASTIC-PLASTIC-PLATE-1                                                         
 LARGEST INCREMENT OF TEMP.        -4.557E-02   AT NODE        250   DOF 11
   INSTANCE: ELASTIC-PLASTIC-PLATE-1                                                         
 LARGEST CORRECTION TO TEMP.       -1.441E-02   AT NODE       4424   DOF 11
   INSTANCE: ELASTIC-PLASTIC-PLATE-1                                                         
          THERE IS ZERO HEAT FLUX EVERYWHERE
 

 ***WARNING: THERE IS ZERO HEAT FLUX EVERYWHERE IN THE MODEL BASED ON THE 
             DEFAULT CRITERION. PLEASE CHECK THE VALUE OF THE AVERAGE HEAT FLUX 
             DURING THE CURRENT ITERATION TO VERIFY THAT THE HEAT FLUX IS SMALL 
             ENOUGH TO BE TREATED AS ZERO. IF NOT, PLEASE USE THE SOLUTION 
             CONTROLS TO RESET THE CRITERION FOR ZERO HEAT FLUX.

 COMPATIBILITY ERRORS:
    TYPE                NUMBER EXCEEDING TOLERANCE  MAXIMUM ERROR        IN ELEMENT
 VOLUMETRIC                          0               -1.044E-11               1700
   INSTANCE: ELASTIC-PLASTIC-PLATE-1                                                         

 ITERATION SUMMARY FOR THE INCREMENT:   1 TOTAL ITERATIONS, OF WHICH
   0 ARE SEVERE DISCONTINUITY ITERATIONS AND  1 ARE EQUILIBRIUM ITERATIONS.

 TIME INCREMENT COMPLETED  1.000E+03,  FRACTION OF STEP COMPLETED  0.990    
 STEP TIME COMPLETED       9.900E+04,  TOTAL TIME COMPLETED        9.900E+04


  INCREMENT   100 STARTS. ATTEMPT NUMBER  1, TIME INCREMENT  1.000E+03
 
	UNSYMMETRIC NEW DIRECT SPARSE SOLVER RUNNING ON
 	1 HOST x 1 MPI RANK PER HOST x 4 THREADS PER RANK
        NUMBER OF EQUATIONS:  45663
        NUMBER OF RHS:        1
        NUMBER OF FLOPS:      1.978e+09
        SOLVER ELAPSED TIME:  40ms

               CONVERGENCE CHECKS FOR EQUILIBRIUM ITERATION     1


 AVERAGE FORCE                      8.017E+04   TIME AVG. FORCE       5.773E+04
 LARGEST SCALED RESIDUAL FORCE       45.8       AT NODE       8364   DOF  2
   INSTANCE: ELASTIC-PLASTIC-PLATE-1                                                         
  CORRESPONDING RESIDUAL FORCE       45.8    
 LARGEST INCREMENT OF DISP.         6.307E-06   AT NODE          5   DOF  2
   INSTANCE: ELASTIC-PLASTIC-PLATE-1                                                         
 LARGEST CORRECTION TO DISP.       -7.315E-09   AT NODE       8367   DOF  2
   INSTANCE: ELASTIC-PLASTIC-PLATE-1                                                         
          THE FORCE     EQUILIBRIUM EQUATIONS HAVE CONVERGED

 AVERAGE HEAT FLUX                  4.307E-12   TIME AVG. HEAT FLUX   1.000E-02
 LARGEST RESIDUAL HEAT FLUX         2.503E-12   AT NODE       2592   DOF 11
   INSTANCE: ELASTIC-PLASTIC-PLATE-1                                                         
 LARGEST INCREMENT OF TEMP.        -4.511E-02   AT NODE        250   DOF 11
   INSTANCE: ELASTIC-PLASTIC-PLATE-1                                                         
 LARGEST CORRECTION TO TEMP.       -1.048E-02   AT NODE       3453   DOF 11
   INSTANCE: ELASTIC-PLASTIC-PLATE-1                                                         
          THERE IS ZERO HEAT FLUX EVERYWHERE
 

 ***WARNING: THERE IS ZERO HEAT FLUX EVERYWHERE IN THE MODEL BASED ON THE 
             DEFAULT CRITERION. PLEASE CHECK THE VALUE OF THE AVERAGE HEAT FLUX 
             DURING THE CURRENT ITERATION TO VERIFY THAT THE HEAT FLUX IS SMALL 
             ENOUGH TO BE TREATED AS ZERO. IF NOT, PLEASE USE THE SOLUTION 
             CONTROLS TO RESET THE CRITERION FOR ZERO HEAT FLUX.

 COMPATIBILITY ERRORS:
    TYPE                NUMBER EXCEEDING TOLERANCE  MAXIMUM ERROR        IN ELEMENT
 VOLUMETRIC                          0               -1.846E-11               2000
   INSTANCE: ELASTIC-PLASTIC-PLATE-1                                                         

 ITERATION SUMMARY FOR THE INCREMENT:   1 TOTAL ITERATIONS, OF WHICH
   0 ARE SEVERE DISCONTINUITY ITERATIONS AND  1 ARE EQUILIBRIUM ITERATIONS.

 TIME INCREMENT COMPLETED  1.000E+03,  FRACTION OF STEP COMPLETED   1.00    
 STEP TIME COMPLETED       1.000E+05,  TOTAL TIME COMPLETED        1.000E+05


          THE ANALYSIS HAS BEEN COMPLETED



     ANALYSIS SUMMARY:
     TOTAL OF        100  INCREMENTS
                       0  CUTBACKS IN AUTOMATIC INCREMENTATION
                     144  ITERATIONS INCLUDING CONTACT ITERATIONS IF PRESENT
                     144  PASSES THROUGH THE EQUATION SOLVER OF WHICH 
                     144  INVOLVE MATRIX DECOMPOSITION, INCLUDING
                       0  DECOMPOSITION(S) OF THE MASS MATRIX
                       1  REORDERING OF EQUATIONS TO MINIMIZE WAVEFRONT
                       0  ADDITIONAL RESIDUAL EVALUATIONS FOR LINE SEARCHES
                       0  ADDITIONAL OPERATOR EVALUATIONS FOR LINE SEARCHES
                       0  WARNING MESSAGES DURING USER INPUT PROCESSING
                     144  WARNING MESSAGES DURING ANALYSIS
                       0  ANALYSIS WARNINGS ARE NUMERICAL PROBLEM MESSAGES
                       0  ANALYSIS WARNINGS ARE NEGATIVE EIGENVALUE MESSAGES
                       0  ERROR MESSAGES



     JOB TIME SUMMARY
       USER TIME (SEC)      =      84.    
       SYSTEM TIME (SEC)    =      9.4    
       TOTAL CPU TIME (SEC) =      93.    
       WALLCLOCK TIME (SEC) =           49
       MEMORY PEAK (GB)     =            0
