*Heading
**
** PARTS
**
*Part, name=BALL
*Node
      1, 0.005, -0.006,           0.
      2,           0., -0.006,           0.
      3,           0., -0.001,           0.
      4,           0., -0.006,           0.25e-3
      5, 0.005, -0.006,           0.25e-3
      6,           0., -0.001,           0.25e-3
      7, -0.005, -0.006,           0.
      8,           0., -0.011,           0.
      9, -0.005, -0.006,           0.25e-3
     10,           0., -0.011,           0.25e-3
     11, 0.0045, -0.006,           0.
     12, 0.004, -0.006,           0.
     13, 0.0035, -0.006,           0.
     14, 0.003, -0.006,           0.
     15, 0.0025, -0.006,           0.
     16, 0.002, -0.006,           0.
     17, 0.0015, -0.006,           0.
     18, 0.001, -0.006,           0.
     19, 0.0005, -0.006,           0.
     20,           0., -0.0055,           0.
** ... 832 like lines cut
*Element, type=C3D8R
  1, 212,  12,  11, 203, 294,  51,  52, 285
  2, 236, 262, 213, 220, 318, 344, 295, 302
  3, 237, 221, 222, 249, 319, 303, 304, 331
  4,  15, 205, 206,  16,  48, 287, 288,  47
  5,  16, 206, 207,  17,  47, 288, 289,  46
  6, 229, 214,  24,  23, 311, 296,  72,  73
  7,  19, 277,  20,   2,  44, 359,  76,   4
  8,  18, 208, 277,  19,  45, 290, 359,  44
  9,  17, 207, 208,  18,  46, 289, 290,  45
 10,  38, 221, 211,  39,  58, 303, 293,  57
 11, 227, 266, 252, 236, 309, 348, 334, 318
 12, 210,  14,  13, 204, 292,  49,  50, 286
 13,  42, 231, 203,  43,  54, 313, 285,  53
 14, 214, 229, 253, 234, 296, 311, 335, 316
 15, 239, 224, 216, 233, 321, 306, 298, 315
 16, 240, 234, 269, 264, 322, 316, 351, 346
 17,  25,  24, 214, 215,  71,  72, 296, 297
 18,  31, 217, 225,  32,  65, 299, 307,  64
 19, 235, 226, 241, 219, 317, 308, 323, 301
 20,  26, 218, 219,  27,  70, 300, 301,  69
** ... 373 like lines cut
*Elset, elset=EALL, internal, generate
   1,  393,    1
*Solid Section, elset=EALL, material=MATERIAL-1
*End Part
**
*Part, name=CHANNEL
*Node
      1, -0.010,  0.0145, 0.00025
      2,     0.,  0.0145, 0.00025
      3,  0.010,  0.0145, 0.00025
      4,     0.,  0.0145, 0.
      5,  0.010,  0.0145, 0.
      6, -0.010,  0.0145, 0.
      7,  0.010,  0.0005, 0.00025
      8,  0.010,  0.0005, 0.
      9,  0.004, -0.0095, 0.00025
     10,  0.004, -0.0095, 0.
     11,  0.004, -0.0155, 0.00025
     12,  0.004, -0.0155, 0.
     13,  0.018, -0.0155, 0.00025
     14,  0.018, -0.0155, 0.
     15,  0.018, -0.0175, 0.00025
     16,  0.018, -0.0175, 0.
     17, -0.018, -0.0175, 0.00025
     18, -0.018, -0.0175, 0.
     19, -0.018, -0.0155, 0.00025
     20, -0.018, -0.0155, 0.
** ... 7 like lines cut
*Element, type=R3D4
 1, 13, 14, 12, 11
 2, 11, 12, 10,  9
 3, 23, 24, 22, 21
 4,  2,  4,  6,  1
 5, 21, 22, 20, 19
 6, 17, 18, 16, 15
 7, 15, 16, 14, 13
 8, 19, 20, 18, 17
 9,  3,  5,  4,  2
10,  7,  8,  5,  3
11,  1,  6, 26, 25
12,  9, 10,  8,  7
13, 25, 26, 24, 23
*End Part
**  
**
** ASSEMBLY
**
*Assembly, name=Assembly
**  
*Instance, name=CHANNEL-1, part=CHANNEL
*End Instance
**  
*Instance, name=BALL-1, part=BALL
*End Instance
**  
*Element, type=CONN3D2, elset=CONN
 1, BALL-1.2, CHANNEL-1.4
 2, BALL-1.4, CHANNEL-1.2
*Connector Section, elset=CONN, behavior=ConnProp-1
 Axial,
 CSYS-1,
*Nset, nset=BALL, instance=BALL-1, generate
   1,  852,    1
*Elset, elset=BALL, instance=BALL-1, generate
   1,  393,    1
*Nset, nset=CHANNEL, instance=CHANNEL-1, generate
   1,  26,    1
*Elset, elset=CHANNEL, instance=CHANNEL-1, generate
   1,  13,    1
*Nset, nset=CHANNELREF, instance=CHANNEL-1
 305,
*Nset, nset=MONITOR, instance=BALL-1
 6,
*Surface, type=ELEMENT, name=CHANNEL
 CHANNEL, SNEG
*Elset, elset=_BALL_S4, internal, instance=BALL-1
  21,  31,  37,  38,  39,  44,  45,  70, 105, 109, 115, 128, 137, 141, 148, 198
 201, 202, 204, 217, 218, 228, 231, 239, 241, 292, 305, 321, 323, 325, 335, 336
*Elset, elset=_BALL_S6, internal, instance=BALL-1
  10,  13,  18,  26,  28,  30,  43, 101, 102, 124, 126, 129, 131, 132, 144, 207
 212, 213, 219, 230, 235, 294, 302, 308, 310, 312, 313, 334
*Elset, elset=_BALL_S5, internal, instance=BALL-1
  22, 123, 306, 358
*Surface, type=ELEMENT, name=BALL
_BALL_S4, S4
_BALL_S6, S6
_BALL_S5, S5
**
*Orientation, name=CSYS-1
1., 0., 0., 0., 1., 0.
1, 0.
*Rigid Body, ref node=CHANNELREF, elset=CHANNEL
*End Assembly
*Connector Behavior, name=ConnProp-1
*Connector Elasticity, nonlinear, component=1
 -125.   ,  -0.005
   -0.047,  -0.0035
    0.   ,   0.
    0.047,   0.002
    1.250,   0.005
** 
** MATERIALS
** 
*Material, name=MATERIAL-1
*Density
 7800.,
*Elastic
 2e+11, 0.3
** 
** INTERACTION PROPERTIES
** 
*Surface Interaction, name=NOFRIC
 1.,
*Friction
 0.,
** 
** INTERACTIONS
** 
*Contact Pair, interaction=NOFRIC, type=SURFACE TO SURFACE
 BALL, CHANNEL
**
** BOUNDARY CONDITIONS
** 
*Boundary
 CHANNELREF, 1, 6
 BALL, 1, 1
 BALL, 3, 3
** ----------------------------------------------------------------
** 
** STEP: Coupled
** 
*Step, name=Coupled, nlgeom=YES, inc=1000, unsymm=YES, convert sdi=NO
*Dynamic
 0.0001,0.02,1e-09,0.001
** 
** OUTPUT REQUESTS
** 
*Restart, write, frequency=0
** 
*Output, field, var=PRESELECT, frequency=1
*Node Output
 COORD, 
** 
*Output, history, var=PRESELECT, frequency=1
*Node Output, nset=MONITOR
 U2, 
*End Step
