 Abaqus/Standard 2023.HF4                  DATE 01-Jul-2024 TIME 21:52:23
 SUMMARY OF JOB INFORMATION:
 STEP  INC ATT SEVERE EQUIL TOTAL  TOTAL      STEP       INC OF       DOF    IF
               DISCON ITERS ITERS  TIME/    TIME/LPF    TIME/LPF    MONITOR RIKS
               ITERS               FREQ
   1     1   1     0     1     1  500.       500.       500.0     
   1     2   1     0     2     2  1.00e+03   1.00e+03   500.0     
   1     3   1     0     1     1  1.50e+03   1.50e+03   500.0     
   1     4   1     0     1     1  2.50e+03   2.50e+03   1000.     
   1     5   1     0     1     1  3.50e+03   3.50e+03   1000.     
   1     6   1     0     1     1  4.50e+03   4.50e+03   1000.     
   1     7   1     0     1     1  5.50e+03   5.50e+03   1000.     
   1     8   1     0     1     1  6.50e+03   6.50e+03   1000.     
   1     9   1     0     1     1  7.50e+03   7.50e+03   1000.     
                          
 THE ANALYSIS HAS NOT BEEN COMPLETED
