1

   Abaqus 2023                                  Date 08-Dec-2024   Time 19:30:31
   For use by CSC_ IT CENTER FOR SCIENCE LTD under license from Dassault Systemes or its subsidiary.



                         The Abaqus Software is a product of:

                           Dassault Systemes SIMULIA Corp.
                           1301 Atwood Avenue, Suite 101W
                              Johnston, RI 02919, USA
 


                   The Abaqus Software is available only under license
                   from Dassault Systemes or its subsidiary and may be
                   used or reproduced only in accordance with the terms
                   of such license.
 
                          On machine r16c02.bullx 
                          you are authorized to run
                          Abaqus/Standard until 27-Feb-2025

                          Your site id is: 200000000037812 


 
                    For assistance or any other information you may
                    obtain contact information for your local office
                    from the world wide web at:

                      http://www.3ds.com/products/simulia/locations/

 
                * * * * * * * * * * * * * * * * * * * * * * * * * * * * * * 
                *                                                         * 
                *                   *****************                     * 
                *                   *  N O T I C E  *                     * 
                *                   *****************                     * 
                *                                                         * 
                *                                                         * 
                *                       Abaqus 2023                       * 
                *                                                         * 
                *          BUILD ID: 2022_09_28-21.11.55 183150           * 
                *                                                         * 
                *                                                         * 
                *  Please make sure you are using                         * 
                *  release Abaqus 2023 manuals                            * 
                *  plus the notes accompanying this release.              * 
                *                                                         * 
                *                                                         * 
                *                                                         * 
                *                                                         * 
                *                                                         * 
                *   This program may not be used for commercial purposes  * 
                *           without payment of a commercial fee.          * 
                *                                                         * 
                * * * * * * * * * * * * * * * * * * * * * * * * * * * * * * 


 



     PROCESSING PART, INSTANCE, AND ASSEMBLY INFORMATION
   *******************************************************


 ***WARNING: Line #262629 has been truncated.

 ***WARNING: Line #262632 has been truncated.

 ***WARNING: Line #262633 has been truncated.

     END PROCESSING PART, INSTANCE, AND ASSEMBLY INFORMATION
   ***********************************************************




     OPTIONS BEING PROCESSED
   ***************************


  *Heading
  *Node
  *Element, type=C3D8T
  *Nset, nset=ASSEMBLY_NDBR40-M-1_SET-1
  *Elset, elset=ASSEMBLY_NDBR40-M-1_SET-1
  *Nset, nset=ASSEMBLY_BOTTOM_PART
  *Nset, nset=ASSEMBLY_HYDROGEN_SURFACE
  *Nset, nset=ASSEMBLY_TOP_PART
  *Nset, nset=ASSEMBLY_TOP_SURFACE
  *Nset, nset=ASSEMBLY_WHOLE_PART
  *Nset, nset=ASSEMBLY_ZSYMM
  *Elset, elset=ASSEMBLY_BOTTOM_PART
  *Elset, elset=ASSEMBLY_HYDROGEN_SURFACE
  *Elset, elset=ASSEMBLY_TOP_PART
  *Elset, elset=ASSEMBLY_TOP_SURFACE
  *Elset, elset=ASSEMBLY_WHOLE_PART
  *Elset, elset=ASSEMBLY_ZSYMM
  *coupledtemperature-displacement, creep=NONE
  *coupledtemperature-displacement, creep=NONE, deltmx=1000
  *material, name=CP1000
  *density
  *depvar
  *usermaterial, constants=24, type=THERMAL
  *usermaterial, constants=208, type=MECHANICAL
  *useroutputvariables
  *initialconditions, type=SOLUTION
  *solidsection, elset=ASSEMBLY_NDBR40-M-1_SET-1, material=CP1000
  *solidsection, elset=ASSEMBLY_NDBR40-M-1_SET-1, material=CP1000
  *initialconditions, type=SOLUTION
  *boundary, amplitude=DIFFUSION_PRECHARGING
  *boundary
  *boundary, op=NEW, amplitude=DIFFUSION_INSITU
  *boundary, op=NEW
  *boundary, op=NEW
  *boundary, op=NEW
  *boundary, op=NEW, amplitude=LOADING_INSITU
  *boundary, op=NEW
  *boundary, op=NEW
  *boundary, amplitude=DIFFUSION_PRECHARGING
  *boundary
  *output, field
  *output, history, frequency=0
  *output, field, numberinterval=100
  *output, field, timepoints=TIMEPOINTS-1
  *output, history, frequency=0
  *elementoutput, directions=YES
  *elementoutput, directions=YES
  *elementoutput, directions=YES
  *initialconditions, type=SOLUTION

 ***WARNING: THE OPTION *FIELD IS USED BUT THE OPTION *INITIAL 
             CONDITIONS,TYPE=FIELD IS NOT. THE INITIAL FIELD VARIABLE VALUES 
             ARE ASSUMED TO BE ZERO.
  *field, variable=1, user
  *output, field
  *output, history, frequency=0
  *output, field, numberinterval=100
  *output, field, timepoints=TIMEPOINTS-1
  *output, history, frequency=0
  *elementoutput, directions=YES
  *elementoutput, directions=YES
  *elementoutput, directions=YES
  *initialconditions, type=SOLUTION
  *initialconditions, type=SOLUTION
  *output, field
  *output, history, frequency=0
  *output, field, numberinterval=100
  *output, field, timepoints=TIMEPOINTS-1
  *output, history, frequency=0
  *elementoutput, directions=YES
  *elementoutput, directions=YES
  *elementoutput, directions=YES
  
                               E L E M E N T   Q U A L I T Y  C H E C K S        
  
  
 ***NOTES: DISTORTED ISOPARAMETRIC ELEMENTS: ANGLE BETWEEN ISOPARAMETRIC LINES 
           IS LESS THAN 45 DEGREES OR GREATER THAN 135 DEGREES.
  
           TETRAHEDRAL QUALITY MEASURE: VOLUME OF TETRAHEDRON DIVIDED BY THE 
           VOLUME OF EQUILATERAL TETRAHEDRON WITH SAME CIRCUMSPHERE RADIUS; 
           0 FOR DEGENERATE TETRAHEDRON AND 1 FOR EQUILATERIAL TETRAHEDRON. IT 
           IS RECOMMENDED THAT THE TETRAHEDRAL QUALITY MEASURE BE GREATER THAN 
           0.02, THE MIN INTERIOR (DIHEDRAL) ANGLE BE GREATER THAN 10 DEGREES, 
           AND THE MAX INTERIOR (DIHEDRAL) ANGLE BE LESS THAN 160 DEGREES. 
  
           MODIFIED TETRAHEDRAL QUALITY MEASURE: ANGLES BETWEEN THE TWO LINE 
           SEGMENTS ON EACH EDGE; THE EDGES OF MODIFIED TETRAHEDRAL SHOULD BE 
           AS STRAIGHT AS POSSIBLE. IT IS RECOMMENDED THAT THE ANGLE BETWEEN 
           THE TWO LINE SEGMENTS ON EACH EDGE IS BETWEEN 160 AND 180 DEGREES. 
  
           TRIANGULAR QUALITY MEASURE: AREA OF TRIANGLE DIVIDED BY THE AREA OF 
           EQUILATERAL TRIANGLE WITH SAME CIRCUMCIRCLE RADIUS; 0 FOR DEGENERATE 
           TRIANGLE AND 1 FOR EQUILATERAL TRIANGLE. IT IS RECOMMENDED THAT THE
           TRIANGULAR QUALITY MEASURE BE GREATER THAN 0.01, THE MIN INTERIOR 
           ANGLE BE GREATER THAN 10 DEGREES, AND THE MAX INTERIOR ANGLE BE LESS 
           THAN 160 DEGREES. 
  
           NODAL ADJUSTMENTS ARISING FROM CONTACT INTERACTIONS AND/OR TIE 
           CONSTRAINTS CAN CAUSE SEVERE ELEMENT DISTORTION. IT MAY BE NECESSARY 
           TO REMESH IN ORDER TO REDUCE THE AMOUNT OF ADJUSTMENT. 

 ***WARNING: 390 elements are distorted. Either the isoparametric angles are 
             out of the suggested limits or the triangular or tetrahedral 
             quality measure is bad. The elements have been identified in 
             element set WarnElemDistorted.
  
 --------------------------------------------------------------------------------
 Distorted isoparametric elements
  
       Element         Min/max angle   Adjusted nodes 
 -------------------- ---------------- -------------- 
      NDBR40-M-1.6961          12.2102       NO       
      NDBR40-M-1.6970          33.0186       NO       
      NDBR40-M-1.6972          43.7098       NO       
      NDBR40-M-1.6974          26.5892       NO       
      NDBR40-M-1.6975          32.4236       NO       
      NDBR40-M-1.6976          27.3414       NO       
      NDBR40-M-1.6979          20.7187       NO       
      NDBR40-M-1.6981          22.9565       NO       
      NDBR40-M-1.6982          9.55171       NO       
      NDBR40-M-1.6983          10.5736       NO       
      NDBR40-M-1.6984          23.4639       NO       
      NDBR40-M-1.6985          37.1073       NO       
      NDBR40-M-1.6987          29.7875       NO       
      NDBR40-M-1.6988          26.7053       NO       
      NDBR40-M-1.6989          33.0193       NO       
      NDBR40-M-1.6990          12.2102       NO       
      NDBR40-M-1.6999          33.0186       NO       
      NDBR40-M-1.7001          43.7098       NO       
      NDBR40-M-1.7003          26.5892       NO       
      NDBR40-M-1.7004          32.4236       NO       
      NDBR40-M-1.7005          27.3414       NO       
      NDBR40-M-1.7008          20.7187       NO       
      NDBR40-M-1.7010          22.9565       NO       
      NDBR40-M-1.7011          9.55171       NO       
      NDBR40-M-1.7012          10.5736       NO       
      NDBR40-M-1.7013          23.4639       NO       
      NDBR40-M-1.7014          37.1073       NO       
      NDBR40-M-1.7016          29.7875       NO       
      NDBR40-M-1.7017          26.7053       NO       
      NDBR40-M-1.7018          33.0193       NO       
      NDBR40-M-1.7019          12.2102       NO       
      NDBR40-M-1.7028          33.0186       NO       
      NDBR40-M-1.7030          43.7098       NO       
      NDBR40-M-1.7032          26.5892       NO       
      NDBR40-M-1.7033          32.4236       NO       
      NDBR40-M-1.7034          27.3414       NO       
      NDBR40-M-1.7037          20.7187       NO       
      NDBR40-M-1.7039          22.9565       NO       
      NDBR40-M-1.7040          9.55171       NO       
      NDBR40-M-1.7041          10.5736       NO       
      NDBR40-M-1.7042          23.4639       NO       
      NDBR40-M-1.7043          37.1073       NO       
      NDBR40-M-1.7045          29.7875       NO       
      NDBR40-M-1.7046          26.7053       NO       
      NDBR40-M-1.7047          33.0193       NO       
      NDBR40-M-1.7048          12.2102       NO       
      NDBR40-M-1.7057          33.0186       NO       
      NDBR40-M-1.7059          43.7098       NO       
      NDBR40-M-1.7061          26.5892       NO       
      NDBR40-M-1.7062          32.4236       NO       
      NDBR40-M-1.7063          27.3414       NO       
      NDBR40-M-1.7066          20.7187       NO       
      NDBR40-M-1.7068          22.9565       NO       
      NDBR40-M-1.7069          9.55171       NO       
      NDBR40-M-1.7070          10.5736       NO       
      NDBR40-M-1.7071          23.4639       NO       
      NDBR40-M-1.7072          37.1073       NO       
      NDBR40-M-1.7074          29.7875       NO       
      NDBR40-M-1.7075          26.7053       NO       
      NDBR40-M-1.7076          33.0193       NO       
      NDBR40-M-1.7077          12.2102       NO       
      NDBR40-M-1.7086          33.0186       NO       
      NDBR40-M-1.7088          43.7098       NO       
      NDBR40-M-1.7090          26.5892       NO       
      NDBR40-M-1.7091          32.4236       NO       
      NDBR40-M-1.7092          27.3414       NO       
      NDBR40-M-1.7095          20.7187       NO       
      NDBR40-M-1.7097          22.9565       NO       
      NDBR40-M-1.7098          9.55171       NO       
      NDBR40-M-1.7099          10.5736       NO       
      NDBR40-M-1.7100          23.4639       NO       
      NDBR40-M-1.7101          37.1073       NO       
      NDBR40-M-1.7103          29.7875       NO       
      NDBR40-M-1.7104          26.7053       NO       
      NDBR40-M-1.7105          33.0193       NO       
      NDBR40-M-1.7106          12.2102       NO       
      NDBR40-M-1.7115          33.0186       NO       
      NDBR40-M-1.7117          43.7098       NO       
      NDBR40-M-1.7119          26.5892       NO       
      NDBR40-M-1.7120          32.4236       NO       
      NDBR40-M-1.7121          27.3414       NO       
      NDBR40-M-1.7124          20.7187       NO       
      NDBR40-M-1.7126          22.9565       NO       
      NDBR40-M-1.7127          9.55171       NO       
      NDBR40-M-1.7128          10.5736       NO       
      NDBR40-M-1.7129          23.4639       NO       
      NDBR40-M-1.7130          37.1073       NO       
      NDBR40-M-1.7132          29.7875       NO       
      NDBR40-M-1.7133          26.7053       NO       
      NDBR40-M-1.7134          33.0193       NO       
      NDBR40-M-1.7135          12.2102       NO       
      NDBR40-M-1.7144          33.0186       NO       
      NDBR40-M-1.7146          43.7098       NO       
      NDBR40-M-1.7148          26.5892       NO       
      NDBR40-M-1.7149          32.4236       NO       
      NDBR40-M-1.7150          27.3414       NO       
      NDBR40-M-1.7153          20.7187       NO       
      NDBR40-M-1.7155          22.9565       NO       
      NDBR40-M-1.7156          9.55171       NO       
      NDBR40-M-1.7157          10.5736       NO       
      NDBR40-M-1.7158          23.4639       NO       
      NDBR40-M-1.7159          37.1073       NO       
      NDBR40-M-1.7161          29.7875       NO       
      NDBR40-M-1.7162          26.7053       NO       
      NDBR40-M-1.7163          33.0193       NO       
      NDBR40-M-1.7164          12.2102       NO       
      NDBR40-M-1.7173          33.0186       NO       
      NDBR40-M-1.7175          43.7098       NO       
      NDBR40-M-1.7177          26.5892       NO       
      NDBR40-M-1.7178          32.4236       NO       
      NDBR40-M-1.7179          27.3414       NO       
      NDBR40-M-1.7182          20.7187       NO       
      NDBR40-M-1.7184          22.9565       NO       
      NDBR40-M-1.7185          9.55171       NO       
      NDBR40-M-1.7186          10.5736       NO       
      NDBR40-M-1.7187          23.4639       NO       
      NDBR40-M-1.7188          37.1073       NO       
      NDBR40-M-1.7190          29.7875       NO       
      NDBR40-M-1.7191          26.7053       NO       
      NDBR40-M-1.7192          33.0193       NO       
      NDBR40-M-1.7193          12.2102       NO       
      NDBR40-M-1.7202          33.0186       NO       
      NDBR40-M-1.7204          43.7098       NO       
      NDBR40-M-1.7206          26.5892       NO       
      NDBR40-M-1.7207          32.4236       NO       
      NDBR40-M-1.7208          27.3414       NO       
      NDBR40-M-1.7211          20.7187       NO       
      NDBR40-M-1.7213          22.9565       NO       
      NDBR40-M-1.7214          9.55171       NO       
      NDBR40-M-1.7215          10.5736       NO       
      NDBR40-M-1.7216          23.4639       NO       
      NDBR40-M-1.7217          37.1073       NO       
      NDBR40-M-1.7219          29.7875       NO       
      NDBR40-M-1.7220          26.7053       NO       
      NDBR40-M-1.7221          33.0193       NO       
      NDBR40-M-1.7222          12.2102       NO       
      NDBR40-M-1.7231          33.0186       NO       
      NDBR40-M-1.7233          43.7098       NO       
      NDBR40-M-1.7235          26.5892       NO       
      NDBR40-M-1.7236          32.4236       NO       
      NDBR40-M-1.7237          27.3414       NO       
      NDBR40-M-1.7240          20.7187       NO       
      NDBR40-M-1.7242          22.9565       NO       
      NDBR40-M-1.7243          9.55171       NO       
      NDBR40-M-1.7244          10.5736       NO       
      NDBR40-M-1.7245          23.4639       NO       
      NDBR40-M-1.7246          37.1073       NO       
      NDBR40-M-1.7248          29.7875       NO       
      NDBR40-M-1.7249          26.7053       NO       
      NDBR40-M-1.7250          33.0193       NO       
      NDBR40-M-1.7251          12.2102       NO       
      NDBR40-M-1.7260          33.0186       NO       
      NDBR40-M-1.7262          43.7098       NO       
      NDBR40-M-1.7264          26.5892       NO       
      NDBR40-M-1.7265          32.4236       NO       
      NDBR40-M-1.7266          27.3414       NO       
      NDBR40-M-1.7269          20.7187       NO       
      NDBR40-M-1.7271          22.9565       NO       
      NDBR40-M-1.7272          9.55171       NO       
      NDBR40-M-1.7273          10.5736       NO       
      NDBR40-M-1.7274          23.4639       NO       
      NDBR40-M-1.7275          37.1073       NO       
      NDBR40-M-1.7277          29.7875       NO       
      NDBR40-M-1.7278          26.7053       NO       
      NDBR40-M-1.7279          33.0193       NO       
      NDBR40-M-1.7280          12.2102       NO       
      NDBR40-M-1.7289          33.0186       NO       
      NDBR40-M-1.7291          43.7098       NO       
      NDBR40-M-1.7293          26.5892       NO       
      NDBR40-M-1.7294          32.4236       NO       
      NDBR40-M-1.7295          27.3414       NO       
      NDBR40-M-1.7298          20.7187       NO       
      NDBR40-M-1.7300          22.9565       NO       
      NDBR40-M-1.7301          9.55171       NO       
      NDBR40-M-1.7302          10.5736       NO       
      NDBR40-M-1.7303          23.4639       NO       
      NDBR40-M-1.7304          37.1073       NO       
      NDBR40-M-1.7306          29.7875       NO       
      NDBR40-M-1.7307          26.7053       NO       
      NDBR40-M-1.7308          33.0193       NO       
      NDBR40-M-1.7309          12.2102       NO       
      NDBR40-M-1.7318          33.0186       NO       
      NDBR40-M-1.7320          43.7098       NO       
      NDBR40-M-1.7322          26.5892       NO       
      NDBR40-M-1.7323          32.4236       NO       
      NDBR40-M-1.7324          27.3414       NO       
      NDBR40-M-1.7327          20.7187       NO       
      NDBR40-M-1.7329          22.9565       NO       
      NDBR40-M-1.7330          9.55171       NO       
      NDBR40-M-1.7331          10.5736       NO       
      NDBR40-M-1.7332          23.4639       NO       
      NDBR40-M-1.7333          37.1073       NO       
      NDBR40-M-1.7335          29.7875       NO       
      NDBR40-M-1.7336          26.7053       NO       
      NDBR40-M-1.7337          33.0193       NO       
      NDBR40-M-1.7338          12.2102       NO       
      NDBR40-M-1.7347          33.0186       NO       
      NDBR40-M-1.7349          43.7098       NO       
      NDBR40-M-1.7351          26.5892       NO       
      NDBR40-M-1.7352          32.4236       NO       
      NDBR40-M-1.7353          27.3414       NO       
      NDBR40-M-1.7356          20.7187       NO       
      NDBR40-M-1.7358          22.9565       NO       
      NDBR40-M-1.7359          9.55171       NO       
      NDBR40-M-1.7360          10.5736       NO       
      NDBR40-M-1.7361          23.4639       NO       
      NDBR40-M-1.7362          37.1073       NO       
      NDBR40-M-1.7364          29.7875       NO       
      NDBR40-M-1.7365          26.7053       NO       
      NDBR40-M-1.7366          33.0193       NO       
      NDBR40-M-1.7367          12.2102       NO       
      NDBR40-M-1.7376          33.0186       NO       
      NDBR40-M-1.7378          43.7098       NO       
      NDBR40-M-1.7380          26.5892       NO       
      NDBR40-M-1.7381          32.4236       NO       
      NDBR40-M-1.7382          27.3414       NO       
      NDBR40-M-1.7385          20.7187       NO       
      NDBR40-M-1.7387          22.9565       NO       
      NDBR40-M-1.7388          9.55171       NO       
      NDBR40-M-1.7389          10.5736       NO       
      NDBR40-M-1.7390          23.4639       NO       
      NDBR40-M-1.7391          37.1073       NO       
      NDBR40-M-1.7393          29.7875       NO       
      NDBR40-M-1.7394          26.7053       NO       
      NDBR40-M-1.7395          33.0193       NO       
      NDBR40-M-1.7397          5.82783       NO       
      NDBR40-M-1.7398           13.615       NO       
      NDBR40-M-1.7406          42.2429       NO       
      NDBR40-M-1.7407          38.9011       NO       
      NDBR40-M-1.7410          15.4344       NO       
      NDBR40-M-1.7411          35.3876       NO       
      NDBR40-M-1.7412          24.6452       NO       
      NDBR40-M-1.7413          39.7273       NO       
      NDBR40-M-1.7415          14.8926       NO       
      NDBR40-M-1.7416          5.64111       NO       
      NDBR40-M-1.7417          9.09056       NO       
      NDBR40-M-1.7423          5.82783       NO       
      NDBR40-M-1.7424           13.615       NO       
      NDBR40-M-1.7432          42.2429       NO       
      NDBR40-M-1.7433          38.9011       NO       
      NDBR40-M-1.7436          15.4344       NO       
      NDBR40-M-1.7437          35.3876       NO       
      NDBR40-M-1.7438          24.6452       NO       
      NDBR40-M-1.7439          39.7273       NO       
      NDBR40-M-1.7441          14.8926       NO       
      NDBR40-M-1.7442          5.64111       NO       
      NDBR40-M-1.7443          9.09056       NO       
      NDBR40-M-1.7449          5.82783       NO       
      NDBR40-M-1.7450           13.615       NO       
      NDBR40-M-1.7458          42.2429       NO       
      NDBR40-M-1.7459          38.9011       NO       
      NDBR40-M-1.7462          15.4344       NO       
      NDBR40-M-1.7463          35.3876       NO       
      NDBR40-M-1.7464          24.6452       NO       
      NDBR40-M-1.7465          39.7273       NO       
      NDBR40-M-1.7467          14.8926       NO       
      NDBR40-M-1.7468          5.64111       NO       
      NDBR40-M-1.7469          9.09056       NO       
      NDBR40-M-1.7475          5.82783       NO       
      NDBR40-M-1.7476           13.615       NO       
      NDBR40-M-1.7484          42.2429       NO       
      NDBR40-M-1.7485          38.9011       NO       
      NDBR40-M-1.7488          15.4344       NO       
      NDBR40-M-1.7489          35.3876       NO       
      NDBR40-M-1.7490          24.6452       NO       
      NDBR40-M-1.7491          39.7273       NO       
      NDBR40-M-1.7493          14.8926       NO       
      NDBR40-M-1.7494          5.64111       NO       
      NDBR40-M-1.7495          9.09056       NO       
      NDBR40-M-1.7501          5.82783       NO       
      NDBR40-M-1.7502           13.615       NO       
      NDBR40-M-1.7510          42.2429       NO       
      NDBR40-M-1.7511          38.9011       NO       
      NDBR40-M-1.7514          15.4344       NO       
      NDBR40-M-1.7515          35.3876       NO       
      NDBR40-M-1.7516          24.6452       NO       
      NDBR40-M-1.7517          39.7273       NO       
      NDBR40-M-1.7519          14.8926       NO       
      NDBR40-M-1.7520          5.64111       NO       
      NDBR40-M-1.7521          9.09056       NO       
      NDBR40-M-1.7527          5.82783       NO       
      NDBR40-M-1.7528           13.615       NO       
      NDBR40-M-1.7536          42.2429       NO       
      NDBR40-M-1.7537          38.9011       NO       
      NDBR40-M-1.7540          15.4344       NO       
      NDBR40-M-1.7541          35.3876       NO       
      NDBR40-M-1.7542          24.6452       NO       
      NDBR40-M-1.7543          39.7273       NO       
      NDBR40-M-1.7545          14.8926       NO       
      NDBR40-M-1.7546          5.64111       NO       
      NDBR40-M-1.7547          9.09056       NO       
      NDBR40-M-1.7553          5.82783       NO       
      NDBR40-M-1.7554           13.615       NO       
      NDBR40-M-1.7562          42.2429       NO       
      NDBR40-M-1.7563          38.9011       NO       
      NDBR40-M-1.7566          15.4344       NO       
      NDBR40-M-1.7567          35.3876       NO       
      NDBR40-M-1.7568          24.6452       NO       
      NDBR40-M-1.7569          39.7273       NO       
      NDBR40-M-1.7571          14.8926       NO       
      NDBR40-M-1.7572          5.64111       NO       
      NDBR40-M-1.7573          9.09056       NO       
      NDBR40-M-1.7579          5.82783       NO       
      NDBR40-M-1.7580           13.615       NO       
      NDBR40-M-1.7588          42.2429       NO       
      NDBR40-M-1.7589          38.9011       NO       
      NDBR40-M-1.7592          15.4344       NO       
      NDBR40-M-1.7593          35.3876       NO       
      NDBR40-M-1.7594          24.6452       NO       
      NDBR40-M-1.7595          39.7273       NO       
      NDBR40-M-1.7597          14.8926       NO       
      NDBR40-M-1.7598          5.64111       NO       
      NDBR40-M-1.7599          9.09056       NO       
      NDBR40-M-1.7605          5.82783       NO       
      NDBR40-M-1.7606           13.615       NO       
      NDBR40-M-1.7614          42.2429       NO       
      NDBR40-M-1.7615          38.9011       NO       
      NDBR40-M-1.7618          15.4344       NO       
      NDBR40-M-1.7619          35.3876       NO       
      NDBR40-M-1.7620          24.6452       NO       
      NDBR40-M-1.7621          39.7273       NO       
      NDBR40-M-1.7623          14.8926       NO       
      NDBR40-M-1.7624          5.64111       NO       
      NDBR40-M-1.7625          9.09056       NO       
      NDBR40-M-1.7631          5.82783       NO       
      NDBR40-M-1.7632           13.615       NO       
      NDBR40-M-1.7640          42.2429       NO       
      NDBR40-M-1.7641          38.9011       NO       
      NDBR40-M-1.7644          15.4344       NO       
      NDBR40-M-1.7645          35.3876       NO       
      NDBR40-M-1.7646          24.6452       NO       
      NDBR40-M-1.7647          39.7273       NO       
      NDBR40-M-1.7649          14.8926       NO       
      NDBR40-M-1.7650          5.64111       NO       
      NDBR40-M-1.7651          9.09056       NO       
      NDBR40-M-1.7657          5.82783       NO       
      NDBR40-M-1.7658           13.615       NO       
      NDBR40-M-1.7666          42.2429       NO       
      NDBR40-M-1.7667          38.9011       NO       
      NDBR40-M-1.7670          15.4344       NO       
      NDBR40-M-1.7671          35.3876       NO       
      NDBR40-M-1.7672          24.6452       NO       
      NDBR40-M-1.7673          39.7273       NO       
      NDBR40-M-1.7675          14.8926       NO       
      NDBR40-M-1.7676          5.64111       NO       
      NDBR40-M-1.7677          9.09056       NO       
      NDBR40-M-1.7683          5.82783       NO       
      NDBR40-M-1.7684           13.615       NO       
      NDBR40-M-1.7692          42.2429       NO       
      NDBR40-M-1.7693          38.9011       NO       
      NDBR40-M-1.7696          15.4344       NO       
      NDBR40-M-1.7697          35.3876       NO       
      NDBR40-M-1.7698          24.6452       NO       
      NDBR40-M-1.7699          39.7273       NO       
      NDBR40-M-1.7701          14.8926       NO       
      NDBR40-M-1.7702          5.64111       NO       
      NDBR40-M-1.7703          9.09056       NO       
      NDBR40-M-1.7709          5.82783       NO       
      NDBR40-M-1.7710           13.615       NO       
      NDBR40-M-1.7718          42.2429       NO       
      NDBR40-M-1.7719          38.9011       NO       
      NDBR40-M-1.7722          15.4344       NO       
      NDBR40-M-1.7723          35.3876       NO       
      NDBR40-M-1.7724          24.6452       NO       
      NDBR40-M-1.7725          39.7273       NO       
      NDBR40-M-1.7727          14.8926       NO       
      NDBR40-M-1.7728          5.64111       NO       
      NDBR40-M-1.7729          9.09056       NO       
      NDBR40-M-1.7735          5.82783       NO       
      NDBR40-M-1.7736           13.615       NO       
      NDBR40-M-1.7744          42.2429       NO       
      NDBR40-M-1.7745          38.9011       NO       
      NDBR40-M-1.7748          15.4344       NO       
      NDBR40-M-1.7749          35.3876       NO       
      NDBR40-M-1.7750          24.6452       NO       
      NDBR40-M-1.7751          39.7273       NO       
      NDBR40-M-1.7753          14.8926       NO       
      NDBR40-M-1.7754          5.64111       NO       
      NDBR40-M-1.7755          9.09056       NO       
      NDBR40-M-1.7761          5.82783       NO       
      NDBR40-M-1.7762           13.615       NO       
      NDBR40-M-1.7770          42.2429       NO       
      NDBR40-M-1.7771          38.9011       NO       
      NDBR40-M-1.7774          15.4344       NO       
      NDBR40-M-1.7775          35.3876       NO       
      NDBR40-M-1.7776          24.6452       NO       
      NDBR40-M-1.7777          39.7273       NO       
      NDBR40-M-1.7779          14.8926       NO       
      NDBR40-M-1.7780          5.64111       NO       
      NDBR40-M-1.7781          9.09056       NO       
  
  
  *timepoints, name=TIMEPOINTS-1
  *Step, name=step1_precharging, nlgeom=YES, inc=1000000
  *output, field
  *output, history, frequency=0
  *Step, name=step2_insitu, nlgeom=YES, inc=1000000
  *output, field, numberinterval=100
  *output, field, timepoints=TIMEPOINTS-1
  *output, history, frequency=0
  *Step, name=step1_precharging, nlgeom=YES, inc=1000000
  *Step, name=step2_insitu, nlgeom=YES, inc=1000000
  *Step, name=step1_precharging, nlgeom=YES, inc=1000000
  *coupledtemperature-displacement, creep=NONE
  *boundary, amplitude=DIFFUSION_PRECHARGING
  *boundary
  *output, field
  *nodeoutput
  *elementoutput, directions=YES
  *output, history, frequency=0
  *endstep
  *Step, name=step2_insitu, nlgeom=YES, inc=1000000
  *coupledtemperature-displacement, creep=NONE, deltmx=1000
  *boundary, op=NEW, amplitude=DIFFUSION_INSITU
  *boundary, op=NEW
  *boundary, op=NEW
  *boundary, op=NEW
  *boundary, op=NEW, amplitude=LOADING_INSITU
  *boundary, op=NEW
  *boundary, op=NEW
  *output, field, numberinterval=100
  *nodeoutput
  *elementoutput, directions=YES
  *output, field, timepoints=TIMEPOINTS-1
  *nodeoutput
  *elementoutput, directions=YES
  *output, history, frequency=0
  *endstep

 ***WARNING: OUTPUT AT EXACT, PREDEFINED TIME POINTS WAS REQUESTED IN THIS 
             STEP. Abaqus MIGHT ADJUST THE TIME INCREMENTATION BUT WILL NOT 
             VIOLATE THE MINIMUM TIME INCREMENT ALLOWED IN THE STEP IN ORDER TO 
             WRITE OUTPUT AT THOSE POINTS. CONSEQUENTLY, IN SOME CASES Abaqus 
             MIGHTWRITE OUTPUT IMMEDIATELY AFTER THE SPECIFIED TIME POINTS, 
             INSTEAD OF AT THE TIME POINTS. IN ADDITION, THE NUMBER OF 
             INCREMENTS REQUIRED TO COMPLETE THE STEP WILL IN GENERAL INCREASE.
  *Step, name=step1_precharging, nlgeom=YES, inc=1000000
  *coupledtemperature-displacement, creep=NONE
  *boundary, amplitude=DIFFUSION_PRECHARGING
  *boundary
  *field, variable=1, user
  *endstep
  *Step, name=step2_insitu, nlgeom=YES, inc=1000000
  *coupledtemperature-displacement, creep=NONE, deltmx=1000
  *boundary, op=NEW, amplitude=DIFFUSION_INSITU
  *boundary, op=NEW
  *boundary, op=NEW
  *boundary, op=NEW
  *boundary, op=NEW, amplitude=LOADING_INSITU
  *boundary, op=NEW
  *boundary, op=NEW
  *endstep



                            P R O B L E M   S I Z E


          NUMBER OF ELEMENTS IS                                121705
          NUMBER OF NODES IS                                   136935
          NUMBER OF NODES DEFINED BY THE USER                  136935
          TOTAL NUMBER OF VARIABLES IN THE MODEL               547740
          (DEGREES OF FREEDOM PLUS MAX NO. OF ANY LAGRANGE MULTIPLIER
           VARIABLES. INCLUDE *PRINT,SOLVE=YES TO GET THE ACTUAL NUMBER.)



                              END OF USER INPUT PROCESSING



     JOB TIME SUMMARY
       USER TIME (SEC)      =      7.1    
       SYSTEM TIME (SEC)    =     0.86    
       TOTAL CPU TIME (SEC) =      8.0    
       WALLCLOCK TIME (SEC) =           11
1

   Abaqus 2023                                  Date 08-Dec-2024   Time 19:30:49
   For use by CSC_ IT CENTER FOR SCIENCE LTD under license from Dassault Systemes or its subsidiary.

                                                                                               STEP    1  INCREMENT    1
                                                                                          TIME COMPLETED IN THIS STEP   0.00    


                        S T E P       1     C O U P L E D - T E M P E R A T U R E - D I S P L A C E M E N T   A N A L Y S I S


                                                                                          

          FIXED TIME INCREMENTS
          TIME INCREMENT IS                                     360.    
          TIME PERIOD IS                                       1.800E+03

          CREEP AND SWELLING EFFECTS ARE OMITTED IN THIS STEP
          THE RATE DEPENDENCY WILL BE CONSIDERED IN THIS STEP

          CREEP AND SWELLING EFFECTS WILL BE IGNORED.

          LARGE DISPLACEMENT THEORY WILL BE USED

          UNSYMMETRIC MATRIX STORAGE AND SOLUTION WILL BE USED
  
                   M E M O R Y   E S T I M A T E
  
 PROCESS      FLOATING PT       MINIMUM MEMORY        MEMORY TO
              OPERATIONS           REQUIRED          MINIMIZE I/O
             PER ITERATION           (MB)               (MB)
  
     1          4.48E+12              935              13154
  
 NOTE:
      (1) SINCE ABAQUS DOES NOT PRE-ALLOCATE MEMORY AND ONLY ALLOCATES MEMORY AS NEEDED DURING THE ANALYSIS,
          THE MEMORY REQUIREMENT PRINTED HERE CAN ONLY BE VIEWED AS A GENERAL GUIDELINE BASED ON THE BEST
          KNOWLEDGE AVAILABLE AT THE BEGINNING OF A STEP BEFORE THE SOLUTION PROCESS HAS BEGUN.
      (2) THE ESTIMATE IS NORMALLY UPDATED AT THE BEGINNING OF EVERY STEP. IT IS THE MAXIMUM VALUE OF THE
          ESTIMATE FROM THE CURRENT STEP TO THE LAST STEP OF THE ANALYSIS, WITH UNSYMMETRIC SOLUTION TAKEN
          INTO ACCOUNT IF APPLICABLE. 
      (3) SINCE THE ESTIMATE IS BASED ON THE ACTIVE DEGREES OF FREEDOM IN THE FIRST ITERATION OF THE 
          CURRENT STEP, THE MEMORY ESTIMATE MIGHT BE SIGNIFICANTLY DIFFERENT THAN ACTUAL USAGE FOR 
          PROBLEMS WITH SUBSTANTIAL CHANGES IN ACTIVE DEGREES OF FREEDOM BETWEEN STEPS (OR EVEN WITHIN
          THE SAME STEP). EXAMPLES ARE: PROBLEMS WITH SIGNIFICANT CONTACT CHANGES, PROBLEMS WITH MODEL
          CHANGE, PROBLEMS WITH BOTH STATIC STEP AND STEADY STATE DYNAMIC PROCEDURES WHERE ACOUSTIC 
          ELEMENTS WILL ONLY BE ACTIVATED IN THE STEADY STATE DYNAMIC STEPS.
      (4) FOR MULTI-PROCESS EXECUTION, THE ESTIMATED VALUE OF FLOATING POINT OPERATIONS FOR EACH PROCESS
          IS BASED ON AN INITIAL SCHEDULING OF OPERATIONS AND MIGHT NOT REFLECT THE ACTUAL FLOATING 
          POINT OPERATIONS COMPLETED ON EACH PROCESS. OPERATIONS ARE DYNAMICALLY BALANCED DURING EXECUTION, 
          SO THE ACTUAL BALANCE OF OPERATIONS BETWEEN PROCESSES IS EXPECTED TO BE BETTER THAN THE ESTIMATE
          PRINTED HERE.
      (5) THE UPPER LIMIT OF MEMORY THAT CAN BE ALLOCATED BY ABAQUS WILL IN GENERAL DEPEND ON THE VALUE OF
          THE "MEMORY" PARAMETER AND THE AMOUNT OF PHYSICAL MEMORY AVAILABLE ON THE MACHINE. PLEASE SEE
          THE "ABAQUS ANALYSIS USER'S MANUAL" FOR MORE DETAILS. THE ACTUAL USAGE OF MEMORY AND OF DISK
          SPACE FOR SCRATCH DATA WILL DEPEND ON THIS UPPER LIMIT AS WELL AS THE MEMORY REQUIRED TO MINIMIZE
          I/O. IF THE MEMORY UPPER LIMIT IS GREATER THAN THE MEMORY REQUIRED TO MINIMIZE I/O, THEN THE ACTUAL
          MEMORY USAGE WILL BE CLOSE TO THE ESTIMATED "MEMORY TO MINIMIZE I/O" VALUE, AND THE SCRATCH DISK
          USAGE WILL BE CLOSE-TO-ZERO; OTHERWISE, THE ACTUAL MEMORY USED WILL BE CLOSE TO THE PREVIOUSLY
          MENTIONED MEMORY LIMIT, AND THE SCRATCH DISK USAGE WILL BE ROUGHLY PROPORTIONAL TO THE DIFFERENCE
          BETWEEN THE ESTIMATED "MEMORY TO MINIMIZE I/O" AND THE MEMORY UPPER LIMIT. HOWEVER ACCURATE
          ESTIMATE OF THE SCRATCH DISK SPACE IS NOT POSSIBLE.
      (6) USING "*RESTART, WRITE" CAN GENERATE A LARGE AMOUNT OF DATA WRITTEN IN THE WORK DIRECTORY.
1

   Abaqus 2023                                  Date 08-Dec-2024   Time 19:33:28
   For use by CSC_ IT CENTER FOR SCIENCE LTD under license from Dassault Systemes or its subsidiary.

                                                                                               STEP    2  INCREMENT    1
                                                                                          TIME COMPLETED IN THIS STEP   0.00    


                        S T E P       2     C O U P L E D - T E M P E R A T U R E - D I S P L A C E M E N T   A N A L Y S I S


                                                                                          

     AUTOMATIC TIME CONTROL WITH -
          A SUGGESTED INITIAL TIME INCREMENT OF                 8.00    
          AND A TOTAL TIME PERIOD OF                            800.    
          THE MINIMUM TIME INCREMENT ALLOWED IS                1.000E-07
          THE MAXIMUM TIME INCREMENT ALLOWED IS                 8.00    

          CREEP AND SWELLING EFFECTS ARE OMITTED IN THIS STEP

     THE SIZE OF THE TIME INCREMENT IS CONTROLLED BY -
          THE TEMPERATURE CHANGE PER INCREMENT NOT EXCEEDING           1.000E+03
          THE RATE DEPENDENCY WILL BE CONSIDERED IN THIS STEP

          CREEP AND SWELLING EFFECTS WILL BE IGNORED.

          LARGE DISPLACEMENT THEORY WILL BE USED

          UNSYMMETRIC MATRIX STORAGE AND SOLUTION WILL BE USED
  
                   M E M O R Y   E S T I M A T E
  
 PROCESS      FLOATING PT       MINIMUM MEMORY        MEMORY TO
              OPERATIONS           REQUIRED          MINIMIZE I/O
             PER ITERATION           (MB)               (MB)
  
     1          4.48E+12              935              13154
  
 NOTE:
      (1) SINCE ABAQUS DOES NOT PRE-ALLOCATE MEMORY AND ONLY ALLOCATES MEMORY AS NEEDED DURING THE ANALYSIS,
          THE MEMORY REQUIREMENT PRINTED HERE CAN ONLY BE VIEWED AS A GENERAL GUIDELINE BASED ON THE BEST
          KNOWLEDGE AVAILABLE AT THE BEGINNING OF A STEP BEFORE THE SOLUTION PROCESS HAS BEGUN.
      (2) THE ESTIMATE IS NORMALLY UPDATED AT THE BEGINNING OF EVERY STEP. IT IS THE MAXIMUM VALUE OF THE
          ESTIMATE FROM THE CURRENT STEP TO THE LAST STEP OF THE ANALYSIS, WITH UNSYMMETRIC SOLUTION TAKEN
          INTO ACCOUNT IF APPLICABLE. 
      (3) SINCE THE ESTIMATE IS BASED ON THE ACTIVE DEGREES OF FREEDOM IN THE FIRST ITERATION OF THE 
          CURRENT STEP, THE MEMORY ESTIMATE MIGHT BE SIGNIFICANTLY DIFFERENT THAN ACTUAL USAGE FOR 
          PROBLEMS WITH SUBSTANTIAL CHANGES IN ACTIVE DEGREES OF FREEDOM BETWEEN STEPS (OR EVEN WITHIN
          THE SAME STEP). EXAMPLES ARE: PROBLEMS WITH SIGNIFICANT CONTACT CHANGES, PROBLEMS WITH MODEL
          CHANGE, PROBLEMS WITH BOTH STATIC STEP AND STEADY STATE DYNAMIC PROCEDURES WHERE ACOUSTIC 
          ELEMENTS WILL ONLY BE ACTIVATED IN THE STEADY STATE DYNAMIC STEPS.
      (4) FOR MULTI-PROCESS EXECUTION, THE ESTIMATED VALUE OF FLOATING POINT OPERATIONS FOR EACH PROCESS
          IS BASED ON AN INITIAL SCHEDULING OF OPERATIONS AND MIGHT NOT REFLECT THE ACTUAL FLOATING 
          POINT OPERATIONS COMPLETED ON EACH PROCESS. OPERATIONS ARE DYNAMICALLY BALANCED DURING EXECUTION, 
          SO THE ACTUAL BALANCE OF OPERATIONS BETWEEN PROCESSES IS EXPECTED TO BE BETTER THAN THE ESTIMATE
          PRINTED HERE.
      (5) THE UPPER LIMIT OF MEMORY THAT CAN BE ALLOCATED BY ABAQUS WILL IN GENERAL DEPEND ON THE VALUE OF
          THE "MEMORY" PARAMETER AND THE AMOUNT OF PHYSICAL MEMORY AVAILABLE ON THE MACHINE. PLEASE SEE
          THE "ABAQUS ANALYSIS USER'S MANUAL" FOR MORE DETAILS. THE ACTUAL USAGE OF MEMORY AND OF DISK
          SPACE FOR SCRATCH DATA WILL DEPEND ON THIS UPPER LIMIT AS WELL AS THE MEMORY REQUIRED TO MINIMIZE
          I/O. IF THE MEMORY UPPER LIMIT IS GREATER THAN THE MEMORY REQUIRED TO MINIMIZE I/O, THEN THE ACTUAL
          MEMORY USAGE WILL BE CLOSE TO THE ESTIMATED "MEMORY TO MINIMIZE I/O" VALUE, AND THE SCRATCH DISK
          USAGE WILL BE CLOSE-TO-ZERO; OTHERWISE, THE ACTUAL MEMORY USED WILL BE CLOSE TO THE PREVIOUSLY
          MENTIONED MEMORY LIMIT, AND THE SCRATCH DISK USAGE WILL BE ROUGHLY PROPORTIONAL TO THE DIFFERENCE
          BETWEEN THE ESTIMATED "MEMORY TO MINIMIZE I/O" AND THE MEMORY UPPER LIMIT. HOWEVER ACCURATE
          ESTIMATE OF THE SCRATCH DISK SPACE IS NOT POSSIBLE.
      (6) USING "*RESTART, WRITE" CAN GENERATE A LARGE AMOUNT OF DATA WRITTEN IN THE WORK DIRECTORY.


          THE ANALYSIS HAS BEEN COMPLETED



                              ANALYSIS COMPLETE
                              WITH      6 WARNING MESSAGES ON THE DAT FILE
                              AND  ****** WARNING MESSAGES ON THE MSG FILE
                                   ****** WARNINGS ARE FOR NUMERICAL PROBLEMS
                                        2 WARNINGS ARE FOR NEGATIVE EIGENVALUES



     JOB TIME SUMMARY
       USER TIME (SEC)      =     5.23E+04
       SYSTEM TIME (SEC)    =     6.59E+02
       TOTAL CPU TIME (SEC) =     5.30E+04
       WALLCLOCK TIME (SEC) =         7499
