 Abaqus/Standard 2023                  DATE 08-Dec-2024 TIME 19:24:23
 SUMMARY OF JOB INFORMATION:
 STEP  INC ATT SEVERE EQUIL TOTAL  TOTAL      STEP       INC OF       DOF    IF
               DISCON ITERS ITERS  TIME/    TIME/LPF    TIME/LPF    MONITOR RIKS
               ITERS               FREQ
   1     1   1     0     1     1  360.       360.       360.0     
   1     2   1     0     1     1  720.       720.       360.0     
   1     3   1     0     1     1  1.08e+03   1.08e+03   360.0     
   1     4   1     0     1     1  1.44e+03   1.44e+03   360.0     
   1     5   1     0     1     1  1.80e+03   1.80e+03   360.0     
   2     1   1     0     2     2  1.81e+03   7.16       7.160     
   2     2   1     0     1     1  1.81e+03   14.3       7.160     
   2     3   1     0     1     1  1.82e+03   21.5       7.160     
   2     4   1     0     1     1  1.83e+03   28.6       7.160     
   2     5   1     0     1     1  1.84e+03   35.8       7.160     
   2     6   1     0     1     1  1.84e+03   43.0       7.160     
   2     7   1     0     1     1  1.85e+03   50.1       7.160     
   2     8   1     0     1     1  1.86e+03   57.3       7.160     
   2     9   1     0     1     1  1.86e+03   64.4       7.160     
   2    10   1     0     1     1  1.87e+03   71.6       7.160     
   2    11   1     0     1     1  1.88e+03   78.8       7.160     
   2    12   1     0     1     1  1.89e+03   85.9       7.160     
   2    13   1     0     1     1  1.89e+03   93.1       7.160     
   2    14   1     0     1     1  1.90e+03   100.       7.160     
   2    15   1     0     1     1  1.91e+03   107.       7.160     
   2    16   1     0     1     1  1.91e+03   115.       7.160     
   2    17   1     0     1     1  1.92e+03   122.       7.160     
   2    18   1     0     1     1  1.93e+03   129.       7.160     
   2    19   1     0     2     2  1.94e+03   136.       7.160     
   2    20   1     0     2     2  1.94e+03   143.       7.160     
   2    21   1     0     2     2  1.95e+03   150.       7.160     
   2    22   1     0     2     2  1.96e+03   158.       7.160     
   2    23   1     0     2     2  1.96e+03   165.       7.160     
   2    24   1     0     1     1  1.97e+03   172.       7.160     
   2    25   1     0     2     2  1.98e+03   179.       7.160     
   2    26   1     0     2     2  1.99e+03   186.       7.160     
   2    27   1     0     2     2  1.99e+03   193.       7.160     
   2    28   1     0     2     2  2.00e+03   200.       7.160     
   2    29   1     0     2     2  2.01e+03   208.       7.160     
   2    30   1     0     2     2  2.01e+03   215.       7.160     
   2    31   1     0     2     2  2.02e+03   222.       7.160     
   2    32   1     0     2     2  2.03e+03   229.       7.160     
   2    33   1     0     2     2  2.04e+03   236.       7.160     
   2    34   1     0     2     2  2.04e+03   243.       7.160     
   2    35   1     0     2     2  2.05e+03   251.       7.160     
   2    36   1     0     2     2  2.06e+03   258.       7.160     
   2    37   1     0     2     2  2.06e+03   265.       7.160     
   2    38   1     0     2     2  2.07e+03   272.       7.160     
   2    39   1     0     2     2  2.08e+03   279.       7.160     
   2    40   1     0     2     2  2.09e+03   286.       7.160     
   2    41   1     0     2     2  2.09e+03   294.       7.160     
   2    42   1     0     2     2  2.10e+03   301.       7.160     
   2    43   1     0     2     2  2.11e+03   308.       7.160     
   2    44   1     0     2     2  2.12e+03   315.       7.160     
   2    45   1     0     3     3  2.12e+03   322.       7.160     
   2    46   1     0     3     3  2.13e+03   329.       7.160     
   2    47   1     0     3     3  2.14e+03   337.       7.160     
   2    48   1     0     3     3  2.14e+03   344.       7.160     
   2    49   1     0     3     3  2.15e+03   351.       7.160     
   2    50   1     0     3     3  2.16e+03   358.       7.160     
   2    51   1     0     3     3  2.17e+03   365.       7.160     
   2    52   1     0     2     2  2.17e+03   372.       7.160     
   2    53   1     0     3     3  2.18e+03   379.       7.160     
   2    54   1     0     2     2  2.19e+03   387.       7.160     
   2    55   1     0     3     3  2.19e+03   394.       7.160     
   2    56   1     0     3     3  2.20e+03   401.       7.160     
   2    57   1     0     3     3  2.21e+03   408.       7.160     
   2    58   1     0     3     3  2.22e+03   415.       7.160     
   2    59   1     0     2     2  2.22e+03   422.       7.160     
   2    60   1     0     2     2  2.23e+03   430.       7.160     
   2    61   1     0     2     2  2.24e+03   437.       7.160     
   2    62   1     0     2     2  2.24e+03   444.       7.160     
   2    63   1     0     1     1  2.25e+03   451.       7.160     
   2    64   1     0     1     1  2.25e+03   454.       2.920     
   2    65   1     0     2     2  2.26e+03   458.       4.240     
   2    66   1     0     2     2  2.27e+03   465.       7.160     
   2    67   1     0     2     2  2.27e+03   473.       7.160     
   2    68   1     0     1     1  2.28e+03   480.       7.160     
   2    69   1     0     2     2  2.29e+03   487.       7.160     
   2    70   1     0     2     2  2.29e+03   494.       7.160     
   2    71   1     0     1     1  2.30e+03   501.       7.160     
   2    72   1     0     1     1  2.31e+03   508.       7.160     
   2    73   1     0     1     1  2.32e+03   516.       7.160     
   2    74   1     0     2     2  2.32e+03   523.       7.160     
   2    75   1     0     2     2  2.33e+03   530.       7.160     
   2    76   1     0     1     1  2.34e+03   537.       7.160     
   2    77   1     0     1     1  2.34e+03   544.       7.160     
   2    78   1     0     1     1  2.35e+03   550.       5.840     
   2    79   1     0     1     1  2.35e+03   551.       1.320     
   2    80   1     0     1     1  2.35e+03   554.       2.680     
   2    81   1     0     1     1  2.36e+03   558.       4.480     
   2    82   1     0     1     1  2.37e+03   566.       7.160     
   2    83   1     0     1     1  2.37e+03   573.       7.160     
   2    84   1     0     1     1  2.38e+03   580.       7.160     
   2    85   1     0     2     2  2.39e+03   587.       7.160     
   2    86   1     0     2     2  2.39e+03   594.       7.160     
   2    87   1     0     4     4  2.40e+03   601.       7.160     
   2    88   1     0     3     3  2.41e+03   609.       7.160     
   2    89   1     0     4     4  2.42e+03   616.       7.160     
   2    90   1     0     4     4  2.42e+03   623.       7.160     
   2    91   1     0     3     3  2.43e+03   630.       7.160     
   2    92   1     0     3     3  2.44e+03   637.       7.160     
   2    93   1     0     3     3  2.44e+03   644.       7.160     
   2    94   1     0     3     3  2.45e+03   652.       7.160     
   2    95   1     0     3     3  2.46e+03   659.       7.160     
   2    96   1     0     3     3  2.47e+03   666.       7.160     
   2    97   1     0     3     3  2.47e+03   673.       7.160     
   2    98   1     0     3     3  2.48e+03   680.       7.160     
   2    99   1     0     3     3  2.49e+03   687.       7.160     
   2   100   1     0     4     4  2.49e+03   695.       7.160     
   2   101   1     0     3     3  2.50e+03   702.       7.160     
   2   102   1     0     4     4  2.51e+03   709.       7.160     
   2   103   1     0     5     5  2.52e+03   716.       7.160     
                          
 THE ANALYSIS HAS COMPLETED SUCCESSFULLY
