*Heading
Abaqus to Dymola Co-simulation
*Preprint, echo=NO, model=NO, history=NO, contact=NO
**
** PARTS
**
*Part, name=tool
*End Part
**  
**
** ASSEMBLY
**
*Assembly, name=Assembly
**  
*Instance, name=tool-1, part=tool
*Node
      1,  -51.0111313,   26.2738876,           0.
      2,  -51.2261124,   26.5366421,           0.
      3,      -50.625,        33.75,           0.
      4,         -45.,       26.875,           0.
      5,  -51.2261124,   26.5366421,          10.
      6,      -50.625,        33.75,          10.
      7,         -45.,       26.875,          10.
      8,  -51.0111313,   26.2738876,          10.
      9,         -50.,        41.25,           0.
     10,  -42.3319473,          50.,           0.
     11,       -26.25,          50.,           0.
     12,          25.,          50.,           0.
     13,          25.,   31.7892265,           0.
     14,       -26.25,   31.7892265,           0.
     15,       -26.25,        28.75,           0.
     16,       -26.25,        28.75,          10.
     17,       -26.25,   31.7892265,          10.
     18,          25.,   31.7892265,          10.
     19,          25.,          50.,          10.
     20,       -26.25,          50.,          10.
** ... 2818 like lines cut
*Element, type=DC3D8
 1,   42,  259, 1343,  243,    1,   23,  239,   28
 2,  259,   47,  251, 1343,   23,    2,   24,  239
 3,  243, 1343, 1344,  244,   28,  239,  240,   27
 4, 1343,  251,  252, 1344,  239,   24,   25,  240
 5,  244, 1344,  263,   35,   27,  240,   26,    4
 6, 1344,  252,   46,  263,  240,   25,    3,   26
 7,   41,  260, 1345,  245,   42,  259, 1343,  243
 8,  260,   48,  253, 1345,  259,   47,  251, 1343
 9,  245, 1345, 1346,  246,  243, 1343, 1344,  244
10, 1345,  253,  254, 1346, 1343,  251,  252, 1344
11,  246, 1346,  264,   36,  244, 1344,  263,   35
12, 1346,  254,   45,  264, 1344,  252,   46,  263
13,   40,  261, 1347,  247,   41,  260, 1345,  245
14,  261,   49,  255, 1347,  260,   48,  253, 1345
15,  247, 1347, 1348,  248,  245, 1345, 1346,  246
16, 1347,  255,  256, 1348, 1345,  253,  254, 1346
17,  248, 1348,  265,   37,  246, 1346,  264,   36
18, 1348,  256,   44,  265, 1346,  254,   45,  264
19,   39,  262, 1349,  249,   40,  261, 1347,  247
20,  262,   50,  257, 1349,  261,   49,  255, 1347
** ... 2095 like lines cut
*Nset, nset=Set-1
    3,    4,    6,    7,    9,   10,   11,   12,   13,   14,   15,   16,   17,   18,   19,   20
   21,   22,   26,   32,   35,   36,   37,   38,   43,   44,   45,   46,   51,   52,   53,   54
   55,   56,   57,   58,   59,   60,   61,   62,   63,   64,   65,   66,   67,   68,   69,   70
   71,   72,   73,   74,   75,   76,   77,   78,   79,   80,   81,   82,   83,   84,   85,   86
   87,   88,   89,   90,   91,   92,   93,   94,   95,   96,   97,   98,   99,  100,  101,  102
  103,  104,  105,  106,  107,  108,  109,  110,  111,  112,  113,  114,  115,  116,  117,  118
  119,  120,  121,  122,  123,  124,  125,  126,  127,  128,  129,  130,  131,  132,  133,  134
  135,  136,  137,  138,  139,  140,  141,  142,  143,  144,  145,  146,  147,  148,  149,  150
  151,  152,  153,  154,  155,  156,  157,  158,  159,  160,  161,  162,  163,  164,  165,  166
  167,  168,  169,  170,  171,  172,  173,  174,  175,  176,  177,  178,  179,  180,  181,  182
  183,  184,  185,  186,  187,  188,  189,  190,  191,  192,  193,  194,  195,  196,  197,  198
  199,  200,  201,  202,  203,  204,  205,  206,  207,  208,  209,  210,  211,  212,  213,  214
  215,  216,  217,  218,  219,  220,  221,  222,  223,  224,  225,  226,  227,  228,  229,  230
  231,  232,  233,  234,  235,  236,  237,  238,  263,  264,  265,  266,  267,  268,  269,  270
  271,  272,  273,  274,  275,  276,  277,  278,  279,  280,  281,  282,  283,  284,  285,  286
  287,  288,  289,  290,  291,  292,  293,  294,  295,  296,  297,  298,  299,  300,  301,  302
  303,  304,  305,  306,  307,  308,  309,  310,  311,  312,  313,  314,  315,  316,  317,  318
  319,  320,  321,  322,  323,  324,  325,  326,  327,  328,  329,  330,  331,  332,  333,  334
  335,  336,  337,  338,  339,  340,  341,  342,  343,  344,  345,  346,  347,  348,  349,  350
  351,  352,  353,  354,  355,  356,  357,  358,  359,  360,  361,  362,  363,  364,  365,  366
** ... 154 like lines cut
*Elset, elset=Set-1, generate
   31,  2115,     1
*Nset, nset=Set-2
    1,    2,    3,    4,    5,    6,    7,    8,   23,   24,   25,   26,   27,   28,   29,   30
   31,   32,   33,   34,   35,   36,   37,   38,   39,   40,   41,   42,   43,   44,   45,   46
   47,   48,   49,   50,  239,  240,  241,  242,  243,  244,  245,  246,  247,  248,  249,  250
  251,  252,  253,  254,  255,  256,  257,  258,  259,  260,  261,  262,  263,  264,  265,  266
 1343, 1344, 1345, 1346, 1347, 1348, 1349, 1350
*Elset, elset=Set-2, generate
  1,  30,   1
** Section: HSS
*Solid Section, elset=Set-2, material=HSS
,
** Section: Steel
*Solid Section, elset=Set-1, material=steel
,
*End Instance
**  
*Nset, nset=SENSOR_SET, instance=tool-1
 265,
*Nset, nset=ALL, instance=tool-1, generate
    1,  2838,     1
*Elset, elset=_Surf-1_S3, internal, instance=tool-1
  1,  2,  7,  8, 13, 14, 19, 20, 25, 26
*Surface, type=ELEMENT, name=Surf-1
_Surf-1_S3, S3
*Elset, elset=_lateral_heat_S4, internal, instance=tool-1, generate
  2,  30,   2
*Elset, elset=_lateral_heat_S6, internal, instance=tool-1, generate
  1,  29,   2
*Surface, type=ELEMENT, name=lateral_heat
_lateral_heat_S4, S4
_lateral_heat_S6, S6
*Elset, elset=_Water_S1, internal, instance=tool-1, generate
  31,  447,    1
*Elset, elset=_Water_S4, internal, instance=tool-1
   37,   42,   54,   57,   64,   73,   74,   77,   81,   85,   87,   88,   90,   91,   92,   93
   95,   97,   98,   99,  100,  101,  103,  122,  131,  132,  168,  454,  459,  471,  474,  481
  490,  491,  494,  498,  502,  504,  505,  507,  508,  509,  510,  512,  514,  515,  516,  517
  518,  520,  539,  548,  549,  585,  871,  876,  888,  891,  898,  907,  908,  911,  915,  919
  921,  922,  924,  925,  926,  927,  929,  931,  932,  933,  934,  935,  937,  956,  965,  966
 1002, 1288, 1293, 1305, 1308, 1315, 1324, 1325, 1328, 1332, 1336, 1338, 1339, 1341, 1342, 1343
 1344, 1346, 1348, 1349, 1350, 1351, 1352, 1354, 1373, 1382, 1383, 1419, 1705, 1710, 1722, 1725
 1732, 1741, 1742, 1745, 1749, 1753, 1755, 1756, 1758, 1759, 1760, 1761, 1763, 1765, 1766, 1767
 1768, 1769, 1771, 1790, 1799, 1800, 1836
*Elset, elset=_Water_S3, internal, instance=tool-1
   31,   32,   36,   41,   42,   45,   48,   52,   53,   55,   56,   59,   60,   61,   62,   63
   66,   67,   69,   70,   71,   72,   80,  110,  111,  113,  118,  124,  133,  165,  166,  167
  448,  449,  453,  458,  459,  462,  465,  469,  470,  472,  473,  476,  477,  478,  479,  480
  483,  484,  486,  487,  488,  489,  497,  527,  528,  530,  535,  541,  550,  582,  583,  584
  865,  866,  870,  875,  876,  879,  882,  886,  887,  889,  890,  893,  894,  895,  896,  897
  900,  901,  903,  904,  905,  906,  914,  944,  945,  947,  952,  958,  967,  999, 1000, 1001
 1282, 1283, 1287, 1292, 1293, 1296, 1299, 1303, 1304, 1306, 1307, 1310, 1311, 1312, 1313, 1314
 1317, 1318, 1320, 1321, 1322, 1323, 1331, 1361, 1362, 1364, 1369, 1375, 1384, 1416, 1417, 1418
 1699, 1700, 1704, 1709, 1710, 1713, 1716, 1720, 1721, 1723, 1724, 1727, 1728, 1729, 1730, 1731
 1734, 1735, 1737, 1738, 1739, 1740, 1748, 1778, 1779, 1781, 1786, 1792, 1801, 1833, 1834, 1835
*Elset, elset=_Water_S5, internal, instance=tool-1
   35,   38,   43,   46,   47,   50,   51,   58,   65,  103,  109,  114,  115,  121,  130,  137
  442,  452,  455,  460,  463,  464,  467,  468,  475,  482,  520,  526,  531,  532,  538,  547
  554,  859,  869,  872,  877,  880,  881,  884,  885,  892,  899,  937,  943,  948,  949,  955
  964,  971, 1276, 1286, 1289, 1294, 1297, 1298, 1301, 1302, 1309, 1316, 1354, 1360, 1365, 1366
 1372, 1381, 1388, 1693, 1703, 1706, 1711, 1714, 1715, 1718, 1719, 1726, 1733, 1771, 1777, 1782
 1783, 1789, 1798, 1805, 2110
*Elset, elset=_Water_S6, internal, instance=tool-1
   82,  102,  104,  106,  161,  499,  519,  521,  523,  578,  916,  936,  938,  940,  995, 1333
 1353, 1355, 1357, 1412, 1750, 1770, 1772, 1774, 1829
*Elset, elset=_Water_S2, internal, instance=tool-1, generate
 1699,  2115,     1
*Surface, type=ELEMENT, name=Water
_Water_S1, S1
_Water_S4, S4
_Water_S6, S6
_Water_S2, S2
_Water_S3, S3
_Water_S5, S5
*End Assembly
*Amplitude, name=Working
             0.,              1.,            200.,             1.2,            500.,             1.4
** 
** MATERIALS
** 
*Material, name=HSS
*Conductivity
120.,
*Density
 7e-09,
*Specific Heat
 6e+08,
*Material, name=steel
*Conductivity
70.,
*Density
 7.8e-09,
*Specific Heat
 4.6e+08,
** 
** PREDEFINED FIELDS
** 
** Name: starting_temp   Type: Temperature
*Initial Conditions, type=TEMPERATURE
ALL, 45.
** ----------------------------------------------------------------
** 
** STEP: Step-1
** 
*Step, name=Step-1, inc=1000000
*Heat Transfer, end=PERIOD, deltmx=20.
0.01, 700., 0.0001, 5., 
** 
** LOADS
** 
** Name: Friction   Type: Surface heat flux
*Dsflux, amplitude=Working
Surf-1, S, 4000.
** Name: Lateral   Type: Surface heat flux
*Dsflux, amplitude=Working
lateral_heat, S, 300.
** 
** INTERACTIONS
** 
** Interaction: Water
*Sfilm
Water, F, 20., 1.
** 
** OUTPUT REQUESTS
** 
*Restart, write, frequency=0
** 
** FIELD OUTPUT: F-Output-1
** 
*Output, field
*Node Output
NT, 
*Element Output, directions=YES
HFL, 
** 
*End Step
