*HEADING
Note: This file intended for use with the Element Selection Lecture Series.
**
*NODE
    1,       0.00,       0.00,       0.00
    2,      20.00,       0.00,       0.00
    3,      40.00,       0.00,       0.00
    4,      60.00,       0.00,       0.00
    5,      80.00,       0.00,       0.00
    6,     100.00,       0.00,       0.00
    7,     120.00,       0.00,       0.00
    8,     140.00,       0.00,       0.00
    9,     160.00,       0.00,       0.00
   10,     180.00,       0.00,       0.00
   11,     200.00,       0.00,       0.00
  101,       0.00,       2.50,       0.00
  102,      20.00,       2.50,       0.00
  103,      40.00,       2.50,       0.00
  104,      60.00,       2.50,       0.00
  105,      80.00,       2.50,       0.00
  106,     100.00,       2.50,       0.00
  107,     120.00,       2.50,       0.00
  108,     140.00,       2.50,       0.00
  109,     160.00,       2.50,       0.00
** ... 13 like lines cut
*ELEMENT, TYPE=CPS4I, ELSET=BEAMS
    1,     1,     2,   102,   101
    2,     2,     3,   103,   102
    3,     3,     4,   104,   103
    4,     4,     5,   105,   104
    5,     5,     6,   106,   105
    6,     6,     7,   107,   106
    7,     7,     8,   108,   107
    8,     8,     9,   109,   108
    9,     9,    10,   110,   109
   10,    10,    11,   111,   110
  101,   101,   102,   202,   201
  102,   102,   103,   203,   202
  103,   103,   104,   204,   203
  104,   104,   105,   205,   204
  105,   105,   106,   206,   205
  106,   106,   107,   207,   206
  107,   107,   108,   208,   207
  108,   108,   109,   209,   208
  109,   109,   110,   210,   209
  110,   110,   111,   211,   210
*SOLID SECTION, ELSET=BEAMS,MATERIAL=MATEA
50.0,
*MATERIAL, NAME=MATEA
*ELASTIC
2.E5,.3
*NSET,NSET=FIX
1,101,201
*NSET,NSET=LOAD
111,
**
*STEP
*STATIC
*BOUNDARY
FIX,1,2
*BOUNDARY
LOAD,2,2,-10.
*OUTPUT,FIELD
*NODE OUTPUT
U,RF
*ELEMENT OUTPUT
S,
*NODE PRINT
RF,
*EL PRINT,POSITION=AVERAGED AT NODES
S,
*END STEP
