1

   Abaqus 2023.HF4                                  Date 21-Oct-2024   Time 15:19:05
   For use by AALTO UNIVERSITY under license from Dassault Systemes or its subsidiary.

                                                                                 
                                                                                 
 STEP    1     INCREMENT     1     STEP TIME    0.00    


                        S T E P       1     S T A T I C   A N A L Y S I S


                                                                                          

     AUTOMATIC TIME CONTROL WITH -
          A SUGGESTED INITIAL TIME INCREMENT OF                 5.00    
          AND A TOTAL TIME PERIOD OF                           1.000E+03
          THE MINIMUM TIME INCREMENT ALLOWED IS                1.000E-07
          THE MAXIMUM TIME INCREMENT ALLOWED IS                 5.00    

     LINEAR EQUATION SOLVER TYPE         DIRECT SPARSE

 CONVERGENCE TOLERANCE PARAMETERS FOR FORCE    
     CRITERION FOR RESIDUAL FORCE     FOR A NONLINEAR PROBLEM          5.000E-03
     CRITERION FOR DISP.    CORRECTION IN A NONLINEAR PROBLEM          1.000E-02
     INITIAL VALUE OF TIME AVERAGE FORCE                               1.000E-02
     AVERAGE FORCE     IS TIME AVERAGE FORCE    
     ALTERNATE CRIT. FOR RESIDUAL FORCE     FOR A NONLINEAR PROBLEM    2.000E-02
     CRITERION FOR ZERO FORCE     RELATIVE TO TIME AVRG. FORCE         1.000E-05
     CRITERION FOR RESIDUAL FORCE     WHEN THERE IS ZERO FLUX          1.000E-05
     CRITERION FOR DISP.    CORRECTION WHEN THERE IS ZERO FLUX         1.000E-03
     CRITERION FOR RESIDUAL FORCE     FOR A LINEAR INCREMENT           1.000E-08
     FIELD CONVERSION RATIO                                             1.00    
     CRITERION FOR ZERO FORCE     REL. TO TIME AVRG. MAX. FORCE        1.000E-05
     CRITERION FOR ZERO DISP.    RELATIVE TO CHARACTERISTIC LENGTH     1.000E-08

     VOLUMETRIC STRAIN COMPATIBILITY TOLERANCE FOR HYBRID SOLIDS       1.000E-05
     AXIAL STRAIN COMPATIBILITY TOLERANCE FOR HYBRID BEAMS             1.000E-05
     TRANS. SHEAR STRAIN COMPATIBILITY TOLERANCE FOR HYBRID BEAMS      1.000E-05
     SOFT CONTACT CONSTRAINT COMPATIBILITY TOLERANCE FOR P>P0          5.000E-03
     SOFT CONTACT CONSTRAINT COMPATIBILITY TOLERANCE FOR P=0.0         0.100    
     CONTACT FORCE ERROR TOLERANCE FOR CONVERT SDI=YES                 1.00    
     DISPLACEMENT COMPATIBILITY TOLERANCE FOR DCOUP ELEMENTS           1.000E-05
     ROTATION COMPATIBILITY TOLERANCE FOR DCOUP ELEMENTS               1.000E-05

 EQUILIBRIUM WILL BE CHECKED FOR SEVERE DISCONTINUITY ITERATIONS

 TIME INCREMENTATION CONTROL PARAMETERS:
     FIRST EQUILIBRIUM ITERATION FOR CONSECUTIVE DIVERGENCE CHECK              4
     EQUILIBRIUM ITERATION AT WHICH LOG. CONVERGENCE RATE CHECK BEGINS         8
     EQUILIBRIUM ITERATION AFTER WHICH ALTERNATE RESIDUAL IS USED              9
     MAXIMUM EQUILIBRIUM ITERATIONS ALLOWED                                   16
     EQUILIBRIUM ITERATION COUNT FOR CUT-BACK IN NEXT INCREMENT               10
     MAXIMUM EQUILIB. ITERS IN TWO INCREMENTS FOR TIME INCREMENT INCREASE      4
     MAXIMUM ITERATIONS FOR SEVERE DISCONTINUITIES                            50
     MAXIMUM ATTEMPTS ALLOWED IN AN INCREMENT                                  5
     MAXIMUM DISCON. ITERS IN TWO INCREMENTS FOR TIME INCREMENT INCREASE      50
     MAXIMUM CONTACT AUGMENTATIONS FOR *SURFACE BEHAVIOR,AUGMENTED LAGRANGE   50
     CUT-BACK FACTOR AFTER DIVERGENCE                                 0.2500    
     CUT-BACK FACTOR FOR TOO SLOW CONVERGENCE                         0.5000    
     CUT-BACK FACTOR AFTER TOO MANY EQUILIBRIUM ITERATIONS            0.7500    
     CUT-BACK FACTOR AFTER TOO MANY SEVERE DISCONTINUITY ITERATIONS   0.2500    
     CUT-BACK FACTOR AFTER PROBLEMS IN ELEMENT ASSEMBLY               0.2500    
     INCREASE FACTOR AFTER TWO INCREMENTS THAT CONVERGE QUICKLY        1.500    
     MAX. TIME INCREMENT INCREASE FACTOR ALLOWED                       1.500    
     MAX. TIME INCREMENT INCREASE FACTOR ALLOWED (DYNAMICS)            1.250    
     MAX. TIME INCREMENT INCREASE FACTOR ALLOWED (DIFFUSION)           2.000    
     MINIMUM TIME INCREMENT RATIO FOR EXTRAPOLATION TO OCCUR          0.1000    
     MAX. RATIO OF TIME INCREMENT TO STABILITY LIMIT                   1.000    
     FRACTION OF STABILITY LIMIT FOR NEW TIME INCREMENT               0.9500    
     TIME INCREMENT INCREASE FACTOR BEFORE A TIME POINT                1.000    
     GLOBAL STABILIZATION CONTROL IS NOT USED

          PRINT OF INCREMENT NUMBER, TIME, ETC., EVERY    1  INCREMENTS

     THE MAXIMUM NUMBER OF INCREMENTS IN THIS STEP IS                 1000000

          LARGE DISPLACEMENT THEORY WILL BE USED

     LINEAR EXTRAPOLATION WILL BE USED

     CHARACTERISTIC ELEMENT LENGTH     2.261E-04

     DETAILS REGARDING ACTUAL SOLUTION WAVEFRONT REQUESTED

     DETAILED OUTPUT OF DIAGNOSTICS TO DATABASE REQUESTED

     PRINT OF INCREMENT NUMBER, TIME, ETC., TO THE MESSAGE FILE EVERY     1  INCREMENTS

     ELEMENT OPERATIONS WILL BE CARRIED OUT IN PARALLEL USING   8 THREADS ON 1 DOMAIN

     PARALLEL CONTACT TRACKING ENABLED


     COLLECTING MODEL CONSTRAINT INFORMATION FOR OVERCONSTRAINT CHECKS

     COLLECTING STEP CONSTRAINT INFORMATION FOR OVERCONSTRAINT CHECKS


  INCREMENT     1 STARTS. ATTEMPT NUMBER  1, TIME INCREMENT   5.00    
 
     INITIAL ELEMENT LOAD BALANCE
            DOMAIN    1     THREAD    NUMBER OF ELEMENTS
                              1            8792
                              2            8552
                              3            8794
                              4            8368
                              5            8488
                              6            8336
                              7            8600
                              8            8344
 
	SYMMETRIC NEW DIRECT SPARSE SOLVER RUNNING ON
 	1 HOST x 1 MPI RANK PER HOST x 8 THREADS PER RANK
        NUMBER OF EQUATIONS:  129474
        NUMBER OF RHS:        1
        NUMBER OF FLOPS:      4.020e+10
        SOLVER ELAPSED TIME:  307ms

               CONVERGENCE CHECKS FOR EQUILIBRIUM ITERATION     1


 AVERAGE FORCE                      1.887E-02   TIME AVG. FORCE       1.887E-02
 LARGEST SCALED RESIDUAL FORCE     -7.885E-03   AT NODE      13688   DOF  3
   INSTANCE: SH115                                                                           
  CORRESPONDING RESIDUAL FORCE     -7.885E-03
 LARGEST INCREMENT OF DISP.         9.900E-06   AT NODE         11   DOF  2
   INSTANCE: SH115                                                                           
 LARGEST CORRECTION TO DISP.        9.900E-06   AT NODE         11   DOF  2
   INSTANCE: SH115                                                                           
          FORCE     EQUILIBRIUM NOT ACHIEVED WITHIN TOLERANCE.
 
	SYMMETRIC NEW DIRECT SPARSE SOLVER RUNNING ON
 	1 HOST x 1 MPI RANK PER HOST x 8 THREADS PER RANK
        NUMBER OF EQUATIONS:  129474
        NUMBER OF RHS:        1
        NUMBER OF FLOPS:      4.020e+10
        SOLVER ELAPSED TIME:  291ms

               CONVERGENCE CHECKS FOR EQUILIBRIUM ITERATION     2


 AVERAGE FORCE                      1.885E-02   TIME AVG. FORCE       1.885E-02
 LARGEST SCALED RESIDUAL FORCE     -2.627E-06   AT NODE      11338   DOF  2
   INSTANCE: SH115                                                                           
  CORRESPONDING RESIDUAL FORCE     -2.627E-06
 LARGEST INCREMENT OF DISP.         9.900E-06   AT NODE         11   DOF  2
   INSTANCE: SH115                                                                           
 LARGEST CORRECTION TO DISP.       -3.833E-09   AT NODE         34   DOF  1
   INSTANCE: SH115                                                                           
          THE FORCE     EQUILIBRIUM EQUATIONS HAVE CONVERGED

 ITERATION SUMMARY FOR THE INCREMENT:   2 TOTAL ITERATIONS, OF WHICH
   0 ARE SEVERE DISCONTINUITY ITERATIONS AND  2 ARE EQUILIBRIUM ITERATIONS.

 TIME INCREMENT COMPLETED   5.00    ,  FRACTION OF STEP COMPLETED  5.000E-03
 STEP TIME COMPLETED        5.00    ,  TOTAL TIME COMPLETED         5.00    


  INCREMENT     2 STARTS. ATTEMPT NUMBER  1, TIME INCREMENT   5.00    
 
	SYMMETRIC NEW DIRECT SPARSE SOLVER RUNNING ON
 	1 HOST x 1 MPI RANK PER HOST x 8 THREADS PER RANK
        NUMBER OF EQUATIONS:  129474
        NUMBER OF RHS:        1
        NUMBER OF FLOPS:      4.020e+10
        SOLVER ELAPSED TIME:  291ms

               CONVERGENCE CHECKS FOR EQUILIBRIUM ITERATION     1


 AVERAGE FORCE                      7.655E-02   TIME AVG. FORCE       4.770E-02
 LARGEST SCALED RESIDUAL FORCE     -1.052E-05   AT NODE      11338   DOF  2
   INSTANCE: SH115                                                                           
  CORRESPONDING RESIDUAL FORCE     -1.052E-05
 LARGEST INCREMENT OF DISP.         9.900E-06   AT NODE         11   DOF  2
   INSTANCE: SH115                                                                           
 LARGEST CORRECTION TO DISP.       -7.662E-09   AT NODE         34   DOF  1
   INSTANCE: SH115                                                                           
          THE FORCE     EQUILIBRIUM EQUATIONS HAVE CONVERGED

 ITERATION SUMMARY FOR THE INCREMENT:   1 TOTAL ITERATIONS, OF WHICH
   0 ARE SEVERE DISCONTINUITY ITERATIONS AND  1 ARE EQUILIBRIUM ITERATIONS.

 TIME INCREMENT COMPLETED   5.00    ,  FRACTION OF STEP COMPLETED  1.000E-02
 STEP TIME COMPLETED        10.0    ,  TOTAL TIME COMPLETED         10.0    


  INCREMENT     3 STARTS. ATTEMPT NUMBER  1, TIME INCREMENT   5.00    
 
	SYMMETRIC NEW DIRECT SPARSE SOLVER RUNNING ON
 	1 HOST x 1 MPI RANK PER HOST x 8 THREADS PER RANK
        NUMBER OF EQUATIONS:  129474
        NUMBER OF RHS:        1
        NUMBER OF FLOPS:      4.020e+10
        SOLVER ELAPSED TIME:  279ms

               CONVERGENCE CHECKS FOR EQUILIBRIUM ITERATION     1


 AVERAGE FORCE                      0.115       TIME AVG. FORCE       7.008E-02
 LARGEST SCALED RESIDUAL FORCE     -1.588E-05   AT NODE      11338   DOF  2
   INSTANCE: SH115                                                                           
  CORRESPONDING RESIDUAL FORCE     -1.588E-05
 LARGEST INCREMENT OF DISP.         9.900E-06   AT NODE         11   DOF  2
   INSTANCE: SH115                                                                           
 LARGEST CORRECTION TO DISP.       -7.653E-09   AT NODE         34   DOF  1
   INSTANCE: SH115                                                                           
          THE FORCE     EQUILIBRIUM EQUATIONS HAVE CONVERGED

 ITERATION SUMMARY FOR THE INCREMENT:   1 TOTAL ITERATIONS, OF WHICH
   0 ARE SEVERE DISCONTINUITY ITERATIONS AND  1 ARE EQUILIBRIUM ITERATIONS.

 TIME INCREMENT COMPLETED   5.00    ,  FRACTION OF STEP COMPLETED  1.500E-02
 STEP TIME COMPLETED        15.0    ,  TOTAL TIME COMPLETED         15.0    


  INCREMENT     4 STARTS. ATTEMPT NUMBER  1, TIME INCREMENT   5.00    
 
	SYMMETRIC NEW DIRECT SPARSE SOLVER RUNNING ON
 	1 HOST x 1 MPI RANK PER HOST x 8 THREADS PER RANK
        NUMBER OF EQUATIONS:  129474
        NUMBER OF RHS:        1
        NUMBER OF FLOPS:      4.020e+10
        SOLVER ELAPSED TIME:  314ms

               CONVERGENCE CHECKS FOR EQUILIBRIUM ITERATION     1


 AVERAGE FORCE                      0.153       TIME AVG. FORCE       9.084E-02
 LARGEST SCALED RESIDUAL FORCE     -2.122E-05   AT NODE      11338   DOF  2
   INSTANCE: SH115                                                                           
  CORRESPONDING RESIDUAL FORCE     -2.122E-05
 LARGEST INCREMENT OF DISP.         9.900E-06   AT NODE         11   DOF  2
   INSTANCE: SH115                                                                           
 LARGEST CORRECTION TO DISP.       -7.647E-09   AT NODE         34   DOF  1
   INSTANCE: SH115                                                                           
          THE FORCE     EQUILIBRIUM EQUATIONS HAVE CONVERGED

 ITERATION SUMMARY FOR THE INCREMENT:   1 TOTAL ITERATIONS, OF WHICH
   0 ARE SEVERE DISCONTINUITY ITERATIONS AND  1 ARE EQUILIBRIUM ITERATIONS.

 TIME INCREMENT COMPLETED   5.00    ,  FRACTION OF STEP COMPLETED  2.000E-02
 STEP TIME COMPLETED        20.0    ,  TOTAL TIME COMPLETED         20.0    


  INCREMENT     5 STARTS. ATTEMPT NUMBER  1, TIME INCREMENT   5.00    
 
	SYMMETRIC NEW DIRECT SPARSE SOLVER RUNNING ON
 	1 HOST x 1 MPI RANK PER HOST x 8 THREADS PER RANK
        NUMBER OF EQUATIONS:  129474
        NUMBER OF RHS:        1
        NUMBER OF FLOPS:      4.020e+10
        SOLVER ELAPSED TIME:  295ms

               CONVERGENCE CHECKS FOR EQUILIBRIUM ITERATION     1


 AVERAGE FORCE                      0.191       TIME AVG. FORCE       0.111    
 LARGEST SCALED RESIDUAL FORCE     -2.659E-05   AT NODE      11338   DOF  2
   INSTANCE: SH115                                                                           
  CORRESPONDING RESIDUAL FORCE     -2.659E-05
 LARGEST INCREMENT OF DISP.         9.900E-06   AT NODE         11   DOF  2
   INSTANCE: SH115                                                                           
 LARGEST CORRECTION TO DISP.       -7.641E-09   AT NODE         34   DOF  1
   INSTANCE: SH115                                                                           
          THE FORCE     EQUILIBRIUM EQUATIONS HAVE CONVERGED

 ITERATION SUMMARY FOR THE INCREMENT:   1 TOTAL ITERATIONS, OF WHICH
   0 ARE SEVERE DISCONTINUITY ITERATIONS AND  1 ARE EQUILIBRIUM ITERATIONS.

 TIME INCREMENT COMPLETED   5.00    ,  FRACTION OF STEP COMPLETED  2.500E-02
 STEP TIME COMPLETED        25.0    ,  TOTAL TIME COMPLETED         25.0    


  INCREMENT     6 STARTS. ATTEMPT NUMBER  1, TIME INCREMENT   5.00    
 
	SYMMETRIC NEW DIRECT SPARSE SOLVER RUNNING ON
 	1 HOST x 1 MPI RANK PER HOST x 8 THREADS PER RANK
        NUMBER OF EQUATIONS:  129474
        NUMBER OF RHS:        1
        NUMBER OF FLOPS:      4.020e+10
        SOLVER ELAPSED TIME:  279ms

               CONVERGENCE CHECKS FOR EQUILIBRIUM ITERATION     1


 AVERAGE FORCE                      0.230       TIME AVG. FORCE       0.131    
 LARGEST SCALED RESIDUAL FORCE     -3.200E-05   AT NODE      11338   DOF  2
   INSTANCE: SH115                                                                           
  CORRESPONDING RESIDUAL FORCE     -3.200E-05
 LARGEST INCREMENT OF DISP.         9.900E-06   AT NODE         11   DOF  2
   INSTANCE: SH115                                                                           
 LARGEST CORRECTION TO DISP.       -7.635E-09   AT NODE         34   DOF  1
   INSTANCE: SH115                                                                           
          THE FORCE     EQUILIBRIUM EQUATIONS HAVE CONVERGED

 ITERATION SUMMARY FOR THE INCREMENT:   1 TOTAL ITERATIONS, OF WHICH
   0 ARE SEVERE DISCONTINUITY ITERATIONS AND  1 ARE EQUILIBRIUM ITERATIONS.

 TIME INCREMENT COMPLETED   5.00    ,  FRACTION OF STEP COMPLETED  3.000E-02
 STEP TIME COMPLETED        30.0    ,  TOTAL TIME COMPLETED         30.0    


  INCREMENT     7 STARTS. ATTEMPT NUMBER  1, TIME INCREMENT   5.00    
 
	SYMMETRIC NEW DIRECT SPARSE SOLVER RUNNING ON
 	1 HOST x 1 MPI RANK PER HOST x 8 THREADS PER RANK
        NUMBER OF EQUATIONS:  129474
        NUMBER OF RHS:        1
        NUMBER OF FLOPS:      4.020e+10
        SOLVER ELAPSED TIME:  281ms

               CONVERGENCE CHECKS FOR EQUILIBRIUM ITERATION     1


 AVERAGE FORCE                      0.268       TIME AVG. FORCE       0.150    
 LARGEST SCALED RESIDUAL FORCE     -3.744E-05   AT NODE      11338   DOF  2
   INSTANCE: SH115                                                                           
  CORRESPONDING RESIDUAL FORCE     -3.744E-05
 LARGEST INCREMENT OF DISP.         9.900E-06   AT NODE         11   DOF  2
   INSTANCE: SH115                                                                           
 LARGEST CORRECTION TO DISP.       -7.629E-09   AT NODE         34   DOF  1
   INSTANCE: SH115                                                                           
          THE FORCE     EQUILIBRIUM EQUATIONS HAVE CONVERGED

 ITERATION SUMMARY FOR THE INCREMENT:   1 TOTAL ITERATIONS, OF WHICH
   0 ARE SEVERE DISCONTINUITY ITERATIONS AND  1 ARE EQUILIBRIUM ITERATIONS.

 TIME INCREMENT COMPLETED   5.00    ,  FRACTION OF STEP COMPLETED  3.500E-02
 STEP TIME COMPLETED        35.0    ,  TOTAL TIME COMPLETED         35.0    


  INCREMENT     8 STARTS. ATTEMPT NUMBER  1, TIME INCREMENT   5.00    
 
	SYMMETRIC NEW DIRECT SPARSE SOLVER RUNNING ON
 	1 HOST x 1 MPI RANK PER HOST x 8 THREADS PER RANK
        NUMBER OF EQUATIONS:  129474
        NUMBER OF RHS:        1
        NUMBER OF FLOPS:      4.020e+10
        SOLVER ELAPSED TIME:  458ms

               CONVERGENCE CHECKS FOR EQUILIBRIUM ITERATION     1


 AVERAGE FORCE                      0.306       TIME AVG. FORCE       0.170    
 LARGEST SCALED RESIDUAL FORCE      2.240E-03   AT NODE         40   DOF  2
   INSTANCE: SH115                                                                           
  CORRESPONDING RESIDUAL FORCE      2.240E-03
 LARGEST INCREMENT OF DISP.         9.900E-06   AT NODE         11   DOF  2
   INSTANCE: SH115                                                                           
 LARGEST CORRECTION TO DISP.       -1.537E-08   AT NODE       1041   DOF  3
   INSTANCE: SH115                                                                           
          FORCE     EQUILIBRIUM NOT ACHIEVED WITHIN TOLERANCE.
 
	SYMMETRIC NEW DIRECT SPARSE SOLVER RUNNING ON
 	1 HOST x 1 MPI RANK PER HOST x 8 THREADS PER RANK
        NUMBER OF EQUATIONS:  129474
        NUMBER OF RHS:        1
        NUMBER OF FLOPS:      4.020e+10
        SOLVER ELAPSED TIME:  447ms

               CONVERGENCE CHECKS FOR EQUILIBRIUM ITERATION     2


 AVERAGE FORCE                      0.306       TIME AVG. FORCE       0.170    
 LARGEST SCALED RESIDUAL FORCE     -1.968E-05   AT NODE      11265   DOF  2
   INSTANCE: SH115                                                                           
  CORRESPONDING RESIDUAL FORCE     -1.968E-05
 LARGEST INCREMENT OF DISP.         9.900E-06   AT NODE         11   DOF  2
   INSTANCE: SH115                                                                           
 LARGEST CORRECTION TO DISP.        2.366E-10   AT NODE         40   DOF  2
   INSTANCE: SH115                                                                           
          THE FORCE     EQUILIBRIUM EQUATIONS HAVE CONVERGED

 ITERATION SUMMARY FOR THE INCREMENT:   2 TOTAL ITERATIONS, OF WHICH
   0 ARE SEVERE DISCONTINUITY ITERATIONS AND  2 ARE EQUILIBRIUM ITERATIONS.

 TIME INCREMENT COMPLETED   5.00    ,  FRACTION OF STEP COMPLETED  4.000E-02
 STEP TIME COMPLETED        40.0    ,  TOTAL TIME COMPLETED         40.0    


  INCREMENT     9 STARTS. ATTEMPT NUMBER  1, TIME INCREMENT   5.00    
 
	SYMMETRIC NEW DIRECT SPARSE SOLVER RUNNING ON
 	1 HOST x 1 MPI RANK PER HOST x 8 THREADS PER RANK
        NUMBER OF EQUATIONS:  129474
        NUMBER OF RHS:        1
        NUMBER OF FLOPS:      4.020e+10
        SOLVER ELAPSED TIME:  470ms

               CONVERGENCE CHECKS FOR EQUILIBRIUM ITERATION     1


 AVERAGE FORCE                      0.345       TIME AVG. FORCE       0.189    
 LARGEST SCALED RESIDUAL FORCE     -3.164E-02   AT NODE      26148   DOF  2
   INSTANCE: SH115                                                                           
  CORRESPONDING RESIDUAL FORCE     -3.164E-02
 LARGEST INCREMENT OF DISP.         9.900E-06   AT NODE         11   DOF  2
   INSTANCE: SH115                                                                           
 LARGEST CORRECTION TO DISP.        7.254E-08   AT NODE        878   DOF  2
   INSTANCE: SH115                                                                           
          FORCE     EQUILIBRIUM NOT ACHIEVED WITHIN TOLERANCE.
 
	SYMMETRIC NEW DIRECT SPARSE SOLVER RUNNING ON
 	1 HOST x 1 MPI RANK PER HOST x 8 THREADS PER RANK
        NUMBER OF EQUATIONS:  129474
        NUMBER OF RHS:        1
        NUMBER OF FLOPS:      4.020e+10
        SOLVER ELAPSED TIME:  463ms

               CONVERGENCE CHECKS FOR EQUILIBRIUM ITERATION     2


 AVERAGE FORCE                      0.345       TIME AVG. FORCE       0.189    
 LARGEST SCALED RESIDUAL FORCE     -9.392E-04   AT NODE      29914   DOF  2
   INSTANCE: SH115                                                                           
  CORRESPONDING RESIDUAL FORCE     -9.392E-04
 LARGEST INCREMENT OF DISP.         9.900E-06   AT NODE         11   DOF  2
   INSTANCE: SH115                                                                           
 LARGEST CORRECTION TO DISP.       -2.393E-09   AT NODE         26   DOF  2
   INSTANCE: SH115                                                                           
          THE FORCE     EQUILIBRIUM EQUATIONS HAVE CONVERGED

 ITERATION SUMMARY FOR THE INCREMENT:   2 TOTAL ITERATIONS, OF WHICH
   0 ARE SEVERE DISCONTINUITY ITERATIONS AND  2 ARE EQUILIBRIUM ITERATIONS.

 TIME INCREMENT COMPLETED   5.00    ,  FRACTION OF STEP COMPLETED  4.500E-02
 STEP TIME COMPLETED        45.0    ,  TOTAL TIME COMPLETED         45.0    


  INCREMENT    10 STARTS. ATTEMPT NUMBER  1, TIME INCREMENT   5.00    
 
	SYMMETRIC NEW DIRECT SPARSE SOLVER RUNNING ON
 	1 HOST x 1 MPI RANK PER HOST x 8 THREADS PER RANK
        NUMBER OF EQUATIONS:  129474
        NUMBER OF RHS:        1
        NUMBER OF FLOPS:      4.020e+10
        SOLVER ELAPSED TIME:  460ms

               CONVERGENCE CHECKS FOR EQUILIBRIUM ITERATION     1


 AVERAGE FORCE                      0.383       TIME AVG. FORCE       0.209    
 LARGEST SCALED RESIDUAL FORCE      3.781E-02   AT NODE      10837   DOF  2
   INSTANCE: SH115                                                                           
  CORRESPONDING RESIDUAL FORCE      3.781E-02
 LARGEST INCREMENT OF DISP.         9.900E-06   AT NODE         11   DOF  2
   INSTANCE: SH115                                                                           
 LARGEST CORRECTION TO DISP.        7.373E-08   AT NODE      15621   DOF  2
   INSTANCE: SH115                                                                           
          FORCE     EQUILIBRIUM NOT ACHIEVED WITHIN TOLERANCE.
 
	SYMMETRIC NEW DIRECT SPARSE SOLVER RUNNING ON
 	1 HOST x 1 MPI RANK PER HOST x 8 THREADS PER RANK
        NUMBER OF EQUATIONS:  129474
        NUMBER OF RHS:        1
        NUMBER OF FLOPS:      4.020e+10
        SOLVER ELAPSED TIME:  456ms

               CONVERGENCE CHECKS FOR EQUILIBRIUM ITERATION     2


 AVERAGE FORCE                      0.383       TIME AVG. FORCE       0.209    
 LARGEST SCALED RESIDUAL FORCE      1.423E-03   AT NODE      11261   DOF  1
   INSTANCE: SH115                                                                           
  CORRESPONDING RESIDUAL FORCE      1.423E-03
 LARGEST INCREMENT OF DISP.         9.900E-06   AT NODE         11   DOF  2
   INSTANCE: SH115                                                                           
 LARGEST CORRECTION TO DISP.       -4.446E-09   AT NODE        306   DOF  2
   INSTANCE: SH115                                                                           
          FORCE     EQUILIBRIUM NOT ACHIEVED WITHIN TOLERANCE.
 
	SYMMETRIC NEW DIRECT SPARSE SOLVER RUNNING ON
 	1 HOST x 1 MPI RANK PER HOST x 8 THREADS PER RANK
        NUMBER OF EQUATIONS:  129474
        NUMBER OF RHS:        1
        NUMBER OF FLOPS:      4.020e+10
        SOLVER ELAPSED TIME:  454ms

               CONVERGENCE CHECKS FOR EQUILIBRIUM ITERATION     3


 AVERAGE FORCE                      0.383       TIME AVG. FORCE       0.209    
 LARGEST SCALED RESIDUAL FORCE     -3.388E-05   AT NODE      11261   DOF  2
   INSTANCE: SH115                                                                           
  CORRESPONDING RESIDUAL FORCE     -3.388E-05
 LARGEST INCREMENT OF DISP.         9.900E-06   AT NODE         11   DOF  2
   INSTANCE: SH115                                                                           
 LARGEST CORRECTION TO DISP.        1.342E-10   AT NODE      11261   DOF  1
   INSTANCE: SH115                                                                           
          THE FORCE     EQUILIBRIUM EQUATIONS HAVE CONVERGED

 ITERATION SUMMARY FOR THE INCREMENT:   3 TOTAL ITERATIONS, OF WHICH
   0 ARE SEVERE DISCONTINUITY ITERATIONS AND  3 ARE EQUILIBRIUM ITERATIONS.

 TIME INCREMENT COMPLETED   5.00    ,  FRACTION OF STEP COMPLETED  5.000E-02
 STEP TIME COMPLETED        50.0    ,  TOTAL TIME COMPLETED         50.0    


  INCREMENT    11 STARTS. ATTEMPT NUMBER  1, TIME INCREMENT   5.00    
 
	SYMMETRIC NEW DIRECT SPARSE SOLVER RUNNING ON
 	1 HOST x 1 MPI RANK PER HOST x 8 THREADS PER RANK
        NUMBER OF EQUATIONS:  129474
        NUMBER OF RHS:        1
        NUMBER OF FLOPS:      4.020e+10
        SOLVER ELAPSED TIME:  450ms

               CONVERGENCE CHECKS FOR EQUILIBRIUM ITERATION     1


 AVERAGE FORCE                      0.421       TIME AVG. FORCE       0.228    
 LARGEST SCALED RESIDUAL FORCE      4.024E-02   AT NODE      15692   DOF  2
   INSTANCE: SH115                                                                           
  CORRESPONDING RESIDUAL FORCE      4.024E-02
 LARGEST INCREMENT OF DISP.         9.900E-06   AT NODE         11   DOF  2
   INSTANCE: SH115                                                                           
 LARGEST CORRECTION TO DISP.        1.043E-07   AT NODE       1229   DOF  2
   INSTANCE: SH115                                                                           
          FORCE     EQUILIBRIUM NOT ACHIEVED WITHIN TOLERANCE.
 
	SYMMETRIC NEW DIRECT SPARSE SOLVER RUNNING ON
 	1 HOST x 1 MPI RANK PER HOST x 8 THREADS PER RANK
        NUMBER OF EQUATIONS:  129474
        NUMBER OF RHS:        1
        NUMBER OF FLOPS:      4.020e+10
        SOLVER ELAPSED TIME:  443ms

               CONVERGENCE CHECKS FOR EQUILIBRIUM ITERATION     2


 AVERAGE FORCE                      0.421       TIME AVG. FORCE       0.228    
 LARGEST SCALED RESIDUAL FORCE      1.192E-03   AT NODE      13610   DOF  2
   INSTANCE: SH115                                                                           
  CORRESPONDING RESIDUAL FORCE      1.192E-03
 LARGEST INCREMENT OF DISP.         9.900E-06   AT NODE         11   DOF  2
   INSTANCE: SH115                                                                           
 LARGEST CORRECTION TO DISP.        4.411E-09   AT NODE       1245   DOF  2
   INSTANCE: SH115                                                                           
          FORCE     EQUILIBRIUM NOT ACHIEVED WITHIN TOLERANCE.
 
	SYMMETRIC NEW DIRECT SPARSE SOLVER RUNNING ON
 	1 HOST x 1 MPI RANK PER HOST x 8 THREADS PER RANK
        NUMBER OF EQUATIONS:  129474
        NUMBER OF RHS:        1
        NUMBER OF FLOPS:      4.020e+10
        SOLVER ELAPSED TIME:  446ms

               CONVERGENCE CHECKS FOR EQUILIBRIUM ITERATION     3


 AVERAGE FORCE                      0.421       TIME AVG. FORCE       0.228    
 LARGEST SCALED RESIDUAL FORCE      1.268E-05   AT NODE      13610   DOF  3
   INSTANCE: SH115                                                                           
  CORRESPONDING RESIDUAL FORCE      1.268E-05
 LARGEST INCREMENT OF DISP.         9.900E-06   AT NODE         11   DOF  2
   INSTANCE: SH115                                                                           
 LARGEST CORRECTION TO DISP.        1.133E-10   AT NODE      13610   DOF  2
   INSTANCE: SH115                                                                           
          THE FORCE     EQUILIBRIUM EQUATIONS HAVE CONVERGED

 ITERATION SUMMARY FOR THE INCREMENT:   3 TOTAL ITERATIONS, OF WHICH
   0 ARE SEVERE DISCONTINUITY ITERATIONS AND  3 ARE EQUILIBRIUM ITERATIONS.

 TIME INCREMENT COMPLETED   5.00    ,  FRACTION OF STEP COMPLETED  5.500E-02
 STEP TIME COMPLETED        55.0    ,  TOTAL TIME COMPLETED         55.0    


  INCREMENT    12 STARTS. ATTEMPT NUMBER  1, TIME INCREMENT   5.00    
 
	SYMMETRIC NEW DIRECT SPARSE SOLVER RUNNING ON
 	1 HOST x 1 MPI RANK PER HOST x 8 THREADS PER RANK
        NUMBER OF EQUATIONS:  129474
        NUMBER OF RHS:        1
        NUMBER OF FLOPS:      4.020e+10
        SOLVER ELAPSED TIME:  461ms

               CONVERGENCE CHECKS FOR EQUILIBRIUM ITERATION     1


 AVERAGE FORCE                      0.458       TIME AVG. FORCE       0.247    
 LARGEST SCALED RESIDUAL FORCE     -7.247E-02   AT NODE      23046   DOF  2
   INSTANCE: SH115                                                                           
  CORRESPONDING RESIDUAL FORCE     -7.247E-02
 LARGEST INCREMENT OF DISP.         9.900E-06   AT NODE         11   DOF  2
   INSTANCE: SH115                                                                           
 LARGEST CORRECTION TO DISP.        9.966E-08   AT NODE       1228   DOF  2
   INSTANCE: SH115                                                                           
          FORCE     EQUILIBRIUM NOT ACHIEVED WITHIN TOLERANCE.
 
	SYMMETRIC NEW DIRECT SPARSE SOLVER RUNNING ON
 	1 HOST x 1 MPI RANK PER HOST x 8 THREADS PER RANK
        NUMBER OF EQUATIONS:  129474
        NUMBER OF RHS:        1
        NUMBER OF FLOPS:      4.020e+10
        SOLVER ELAPSED TIME:  454ms

               CONVERGENCE CHECKS FOR EQUILIBRIUM ITERATION     2


 AVERAGE FORCE                      0.458       TIME AVG. FORCE       0.247    
 LARGEST SCALED RESIDUAL FORCE     -1.621E-03   AT NODE      16662   DOF  2
   INSTANCE: SH115                                                                           
  CORRESPONDING RESIDUAL FORCE     -1.621E-03
 LARGEST INCREMENT OF DISP.         9.900E-06   AT NODE         11   DOF  2
   INSTANCE: SH115                                                                           
 LARGEST CORRECTION TO DISP.       -4.769E-09   AT NODE       4208   DOF  2
   INSTANCE: SH115                                                                           
          FORCE     EQUILIBRIUM NOT ACHIEVED WITHIN TOLERANCE.
 
	SYMMETRIC NEW DIRECT SPARSE SOLVER RUNNING ON
 	1 HOST x 1 MPI RANK PER HOST x 8 THREADS PER RANK
        NUMBER OF EQUATIONS:  129474
        NUMBER OF RHS:        1
        NUMBER OF FLOPS:      4.020e+10
        SOLVER ELAPSED TIME:  435ms

               CONVERGENCE CHECKS FOR EQUILIBRIUM ITERATION     3


 AVERAGE FORCE                      0.458       TIME AVG. FORCE       0.247    
 LARGEST SCALED RESIDUAL FORCE      2.055E-05   AT NODE      16651   DOF  2
   INSTANCE: SH115                                                                           
  CORRESPONDING RESIDUAL FORCE      2.055E-05
 LARGEST INCREMENT OF DISP.         9.900E-06   AT NODE         11   DOF  2
   INSTANCE: SH115                                                                           
 LARGEST CORRECTION TO DISP.        9.488E-11   AT NODE      13554   DOF  2
   INSTANCE: SH115                                                                           
          THE FORCE     EQUILIBRIUM EQUATIONS HAVE CONVERGED

 ITERATION SUMMARY FOR THE INCREMENT:   3 TOTAL ITERATIONS, OF WHICH
   0 ARE SEVERE DISCONTINUITY ITERATIONS AND  3 ARE EQUILIBRIUM ITERATIONS.

 TIME INCREMENT COMPLETED   5.00    ,  FRACTION OF STEP COMPLETED  6.000E-02
 STEP TIME COMPLETED        60.0    ,  TOTAL TIME COMPLETED         60.0    


  INCREMENT    13 STARTS. ATTEMPT NUMBER  1, TIME INCREMENT   5.00    
 
	SYMMETRIC NEW DIRECT SPARSE SOLVER RUNNING ON
 	1 HOST x 1 MPI RANK PER HOST x 8 THREADS PER RANK
        NUMBER OF EQUATIONS:  129474
        NUMBER OF RHS:        1
        NUMBER OF FLOPS:      4.020e+10
        SOLVER ELAPSED TIME:  478ms

               CONVERGENCE CHECKS FOR EQUILIBRIUM ITERATION     1


 AVERAGE FORCE                      0.495       TIME AVG. FORCE       0.266    
 LARGEST SCALED RESIDUAL FORCE      3.908E-02   AT NODE      36774   DOF  2
   INSTANCE: SH115                                                                           
  CORRESPONDING RESIDUAL FORCE      3.908E-02
 LARGEST INCREMENT OF DISP.         9.900E-06   AT NODE         11   DOF  2
   INSTANCE: SH115                                                                           
 LARGEST CORRECTION TO DISP.        1.063E-07   AT NODE      15671   DOF  2
   INSTANCE: SH115                                                                           
          FORCE     EQUILIBRIUM NOT ACHIEVED WITHIN TOLERANCE.
 
	SYMMETRIC NEW DIRECT SPARSE SOLVER RUNNING ON
 	1 HOST x 1 MPI RANK PER HOST x 8 THREADS PER RANK
        NUMBER OF EQUATIONS:  129474
        NUMBER OF RHS:        1
        NUMBER OF FLOPS:      4.020e+10
        SOLVER ELAPSED TIME:  431ms

               CONVERGENCE CHECKS FOR EQUILIBRIUM ITERATION     2


 AVERAGE FORCE                      0.495       TIME AVG. FORCE       0.266    
 LARGEST SCALED RESIDUAL FORCE     -2.713E-03   AT NODE      36525   DOF  2
   INSTANCE: SH115                                                                           
  CORRESPONDING RESIDUAL FORCE     -2.713E-03
 LARGEST INCREMENT OF DISP.         9.900E-06   AT NODE         11   DOF  2
   INSTANCE: SH115                                                                           
 LARGEST CORRECTION TO DISP.        3.660E-09   AT NODE      36774   DOF  2
   INSTANCE: SH115                                                                           
          FORCE     EQUILIBRIUM NOT ACHIEVED WITHIN TOLERANCE.
 
	SYMMETRIC NEW DIRECT SPARSE SOLVER RUNNING ON
 	1 HOST x 1 MPI RANK PER HOST x 8 THREADS PER RANK
        NUMBER OF EQUATIONS:  129474
        NUMBER OF RHS:        1
        NUMBER OF FLOPS:      4.020e+10
        SOLVER ELAPSED TIME:  463ms

               CONVERGENCE CHECKS FOR EQUILIBRIUM ITERATION     3


 AVERAGE FORCE                      0.495       TIME AVG. FORCE       0.266    
 LARGEST SCALED RESIDUAL FORCE     -3.219E-05   AT NODE      36525   DOF  1
   INSTANCE: SH115                                                                           
  CORRESPONDING RESIDUAL FORCE     -3.219E-05
 LARGEST INCREMENT OF DISP.         9.900E-06   AT NODE         11   DOF  2
   INSTANCE: SH115                                                                           
 LARGEST CORRECTION TO DISP.       -1.824E-10   AT NODE      36525   DOF  2
   INSTANCE: SH115                                                                           
          THE FORCE     EQUILIBRIUM EQUATIONS HAVE CONVERGED

 ITERATION SUMMARY FOR THE INCREMENT:   3 TOTAL ITERATIONS, OF WHICH
   0 ARE SEVERE DISCONTINUITY ITERATIONS AND  3 ARE EQUILIBRIUM ITERATIONS.

 TIME INCREMENT COMPLETED   5.00    ,  FRACTION OF STEP COMPLETED  6.500E-02
 STEP TIME COMPLETED        65.0    ,  TOTAL TIME COMPLETED         65.0    


  INCREMENT    14 STARTS. ATTEMPT NUMBER  1, TIME INCREMENT   5.00    
 
	SYMMETRIC NEW DIRECT SPARSE SOLVER RUNNING ON
 	1 HOST x 1 MPI RANK PER HOST x 8 THREADS PER RANK
        NUMBER OF EQUATIONS:  129474
        NUMBER OF RHS:        1
        NUMBER OF FLOPS:      4.020e+10
        SOLVER ELAPSED TIME:  459ms

               CONVERGENCE CHECKS FOR EQUILIBRIUM ITERATION     1


 AVERAGE FORCE                      0.532       TIME AVG. FORCE       0.285    
 LARGEST SCALED RESIDUAL FORCE      4.240E-02   AT NODE      34441   DOF  2
   INSTANCE: SH115                                                                           
  CORRESPONDING RESIDUAL FORCE      4.240E-02
 LARGEST INCREMENT OF DISP.         9.900E-06   AT NODE         11   DOF  2
   INSTANCE: SH115                                                                           
 LARGEST CORRECTION TO DISP.        1.083E-07   AT NODE      15695   DOF  2
   INSTANCE: SH115                                                                           
          FORCE     EQUILIBRIUM NOT ACHIEVED WITHIN TOLERANCE.
 
	SYMMETRIC NEW DIRECT SPARSE SOLVER RUNNING ON
 	1 HOST x 1 MPI RANK PER HOST x 8 THREADS PER RANK
        NUMBER OF EQUATIONS:  129474
        NUMBER OF RHS:        1
        NUMBER OF FLOPS:      4.020e+10
        SOLVER ELAPSED TIME:  453ms

               CONVERGENCE CHECKS FOR EQUILIBRIUM ITERATION     2


 AVERAGE FORCE                      0.532       TIME AVG. FORCE       0.285    
 LARGEST SCALED RESIDUAL FORCE     -6.319E-04   AT NODE      33128   DOF  2
   INSTANCE: SH115                                                                           
  CORRESPONDING RESIDUAL FORCE     -6.319E-04
 LARGEST INCREMENT OF DISP.         9.900E-06   AT NODE         11   DOF  2
   INSTANCE: SH115                                                                           
 LARGEST CORRECTION TO DISP.        4.087E-09   AT NODE      13959   DOF  2
   INSTANCE: SH115                                                                           
          THE FORCE     EQUILIBRIUM EQUATIONS HAVE CONVERGED

 ITERATION SUMMARY FOR THE INCREMENT:   2 TOTAL ITERATIONS, OF WHICH
   0 ARE SEVERE DISCONTINUITY ITERATIONS AND  2 ARE EQUILIBRIUM ITERATIONS.

 TIME INCREMENT COMPLETED   5.00    ,  FRACTION OF STEP COMPLETED  7.000E-02
 STEP TIME COMPLETED        70.0    ,  TOTAL TIME COMPLETED         70.0    


  INCREMENT    15 STARTS. ATTEMPT NUMBER  1, TIME INCREMENT   5.00    
 
	SYMMETRIC NEW DIRECT SPARSE SOLVER RUNNING ON
 	1 HOST x 1 MPI RANK PER HOST x 8 THREADS PER RANK
        NUMBER OF EQUATIONS:  129474
        NUMBER OF RHS:        1
        NUMBER OF FLOPS:      4.020e+10
        SOLVER ELAPSED TIME:  300ms

               CONVERGENCE CHECKS FOR EQUILIBRIUM ITERATION     1


 AVERAGE FORCE                      0.568       TIME AVG. FORCE       0.304    
 LARGEST SCALED RESIDUAL FORCE     -4.153E-02   AT NODE       6163   DOF  2
   INSTANCE: SH115                                                                           
  CORRESPONDING RESIDUAL FORCE     -4.153E-02
 LARGEST INCREMENT OF DISP.         9.900E-06   AT NODE         11   DOF  2
   INSTANCE: SH115                                                                           
 LARGEST CORRECTION TO DISP.        1.025E-07   AT NODE      15627   DOF  2
   INSTANCE: SH115                                                                           
          FORCE     EQUILIBRIUM NOT ACHIEVED WITHIN TOLERANCE.
 
	SYMMETRIC NEW DIRECT SPARSE SOLVER RUNNING ON
 	1 HOST x 1 MPI RANK PER HOST x 8 THREADS PER RANK
        NUMBER OF EQUATIONS:  129474
        NUMBER OF RHS:        1
        NUMBER OF FLOPS:      4.020e+10
        SOLVER ELAPSED TIME:  292ms

               CONVERGENCE CHECKS FOR EQUILIBRIUM ITERATION     2


 AVERAGE FORCE                      0.568       TIME AVG. FORCE       0.304    
 LARGEST SCALED RESIDUAL FORCE      9.312E-04   AT NODE      39228   DOF  2
   INSTANCE: SH115                                                                           
  CORRESPONDING RESIDUAL FORCE      9.312E-04
 LARGEST INCREMENT OF DISP.         9.900E-06   AT NODE         11   DOF  2
   INSTANCE: SH115                                                                           
 LARGEST CORRECTION TO DISP.        3.875E-09   AT NODE      15628   DOF  2
   INSTANCE: SH115                                                                           
          THE FORCE     EQUILIBRIUM EQUATIONS HAVE CONVERGED

 ITERATION SUMMARY FOR THE INCREMENT:   2 TOTAL ITERATIONS, OF WHICH
   0 ARE SEVERE DISCONTINUITY ITERATIONS AND  2 ARE EQUILIBRIUM ITERATIONS.

 TIME INCREMENT COMPLETED   5.00    ,  FRACTION OF STEP COMPLETED  7.500E-02
 STEP TIME COMPLETED        75.0    ,  TOTAL TIME COMPLETED         75.0    


  INCREMENT    16 STARTS. ATTEMPT NUMBER  1, TIME INCREMENT   5.00    
 
	SYMMETRIC NEW DIRECT SPARSE SOLVER RUNNING ON
 	1 HOST x 1 MPI RANK PER HOST x 8 THREADS PER RANK
        NUMBER OF EQUATIONS:  129474
        NUMBER OF RHS:        1
        NUMBER OF FLOPS:      4.020e+10
        SOLVER ELAPSED TIME:  299ms

               CONVERGENCE CHECKS FOR EQUILIBRIUM ITERATION     1


 AVERAGE FORCE                      0.603       TIME AVG. FORCE       0.323    
 LARGEST SCALED RESIDUAL FORCE      3.675E-02   AT NODE      23215   DOF  2
   INSTANCE: SH115                                                                           
  CORRESPONDING RESIDUAL FORCE      3.675E-02
 LARGEST INCREMENT OF DISP.         9.900E-06   AT NODE         11   DOF  2
   INSTANCE: SH115                                                                           
 LARGEST CORRECTION TO DISP.        1.003E-07   AT NODE       1223   DOF  2
   INSTANCE: SH115                                                                           
          FORCE     EQUILIBRIUM NOT ACHIEVED WITHIN TOLERANCE.
 
	SYMMETRIC NEW DIRECT SPARSE SOLVER RUNNING ON
 	1 HOST x 1 MPI RANK PER HOST x 8 THREADS PER RANK
        NUMBER OF EQUATIONS:  129474
        NUMBER OF RHS:        1
        NUMBER OF FLOPS:      4.020e+10
        SOLVER ELAPSED TIME:  290ms

               CONVERGENCE CHECKS FOR EQUILIBRIUM ITERATION     2


 AVERAGE FORCE                      0.603       TIME AVG. FORCE       0.323    
 LARGEST SCALED RESIDUAL FORCE      6.874E-04   AT NODE      23215   DOF  1
   INSTANCE: SH115                                                                           
  CORRESPONDING RESIDUAL FORCE      6.874E-04
 LARGEST INCREMENT OF DISP.         9.900E-06   AT NODE         11   DOF  2
   INSTANCE: SH115                                                                           
 LARGEST CORRECTION TO DISP.        4.067E-09   AT NODE      14311   DOF  2
   INSTANCE: SH115                                                                           
          THE FORCE     EQUILIBRIUM EQUATIONS HAVE CONVERGED

 ITERATION SUMMARY FOR THE INCREMENT:   2 TOTAL ITERATIONS, OF WHICH
   0 ARE SEVERE DISCONTINUITY ITERATIONS AND  2 ARE EQUILIBRIUM ITERATIONS.

 TIME INCREMENT COMPLETED   5.00    ,  FRACTION OF STEP COMPLETED  8.000E-02
 STEP TIME COMPLETED        80.0    ,  TOTAL TIME COMPLETED         80.0    


  INCREMENT    17 STARTS. ATTEMPT NUMBER  1, TIME INCREMENT   5.00    
 
	SYMMETRIC NEW DIRECT SPARSE SOLVER RUNNING ON
 	1 HOST x 1 MPI RANK PER HOST x 8 THREADS PER RANK
        NUMBER OF EQUATIONS:  129474
        NUMBER OF RHS:        1
        NUMBER OF FLOPS:      4.020e+10
        SOLVER ELAPSED TIME:  277ms

               CONVERGENCE CHECKS FOR EQUILIBRIUM ITERATION     1


 AVERAGE FORCE                      0.638       TIME AVG. FORCE       0.341    
 LARGEST SCALED RESIDUAL FORCE     -4.727E-02   AT NODE      19324   DOF  2
   INSTANCE: SH115                                                                           
  CORRESPONDING RESIDUAL FORCE     -4.727E-02
 LARGEST INCREMENT OF DISP.         9.900E-06   AT NODE         11   DOF  2
   INSTANCE: SH115                                                                           
 LARGEST CORRECTION TO DISP.        8.710E-08   AT NODE      15652   DOF  2
   INSTANCE: SH115                                                                           
          FORCE     EQUILIBRIUM NOT ACHIEVED WITHIN TOLERANCE.
 
	SYMMETRIC NEW DIRECT SPARSE SOLVER RUNNING ON
 	1 HOST x 1 MPI RANK PER HOST x 8 THREADS PER RANK
        NUMBER OF EQUATIONS:  129474
        NUMBER OF RHS:        1
        NUMBER OF FLOPS:      4.020e+10
        SOLVER ELAPSED TIME:  295ms

               CONVERGENCE CHECKS FOR EQUILIBRIUM ITERATION     2


 AVERAGE FORCE                      0.638       TIME AVG. FORCE       0.341    
 LARGEST SCALED RESIDUAL FORCE     -7.452E-04   AT NODE      34846   DOF  2
   INSTANCE: SH115                                                                           
  CORRESPONDING RESIDUAL FORCE     -7.452E-04
 LARGEST INCREMENT OF DISP.         9.900E-06   AT NODE         11   DOF  2
   INSTANCE: SH115                                                                           
 LARGEST CORRECTION TO DISP.       -3.443E-09   AT NODE      19324   DOF  2
   INSTANCE: SH115                                                                           
          THE FORCE     EQUILIBRIUM EQUATIONS HAVE CONVERGED

 ITERATION SUMMARY FOR THE INCREMENT:   2 TOTAL ITERATIONS, OF WHICH
   0 ARE SEVERE DISCONTINUITY ITERATIONS AND  2 ARE EQUILIBRIUM ITERATIONS.

 TIME INCREMENT COMPLETED   5.00    ,  FRACTION OF STEP COMPLETED  8.500E-02
 STEP TIME COMPLETED        85.0    ,  TOTAL TIME COMPLETED         85.0    


  INCREMENT    18 STARTS. ATTEMPT NUMBER  1, TIME INCREMENT   5.00    
 
	SYMMETRIC NEW DIRECT SPARSE SOLVER RUNNING ON
 	1 HOST x 1 MPI RANK PER HOST x 8 THREADS PER RANK
        NUMBER OF EQUATIONS:  129474
        NUMBER OF RHS:        1
        NUMBER OF FLOPS:      4.020e+10
        SOLVER ELAPSED TIME:  279ms

               CONVERGENCE CHECKS FOR EQUILIBRIUM ITERATION     1


 AVERAGE FORCE                      0.672       TIME AVG. FORCE       0.360    
 LARGEST SCALED RESIDUAL FORCE     -3.900E-02   AT NODE      23837   DOF  2
   INSTANCE: SH115                                                                           
  CORRESPONDING RESIDUAL FORCE     -3.900E-02
 LARGEST INCREMENT OF DISP.         9.900E-06   AT NODE         11   DOF  2
   INSTANCE: SH115                                                                           
 LARGEST CORRECTION TO DISP.        9.152E-08   AT NODE      11917   DOF  2
   INSTANCE: SH115                                                                           
          FORCE     EQUILIBRIUM NOT ACHIEVED WITHIN TOLERANCE.
 
	SYMMETRIC NEW DIRECT SPARSE SOLVER RUNNING ON
 	1 HOST x 1 MPI RANK PER HOST x 8 THREADS PER RANK
        NUMBER OF EQUATIONS:  129474
        NUMBER OF RHS:        1
        NUMBER OF FLOPS:      4.020e+10
        SOLVER ELAPSED TIME:  292ms

               CONVERGENCE CHECKS FOR EQUILIBRIUM ITERATION     2


 AVERAGE FORCE                      0.671       TIME AVG. FORCE       0.360    
 LARGEST SCALED RESIDUAL FORCE      2.094E-03   AT NODE      19581   DOF  3
   INSTANCE: SH115                                                                           
  CORRESPONDING RESIDUAL FORCE      2.094E-03
 LARGEST INCREMENT OF DISP.         9.900E-06   AT NODE         11   DOF  2
   INSTANCE: SH115                                                                           
 LARGEST CORRECTION TO DISP.       -4.140E-09   AT NODE       4999   DOF  2
   INSTANCE: SH115                                                                           
          FORCE     EQUILIBRIUM NOT ACHIEVED WITHIN TOLERANCE.
 
	SYMMETRIC NEW DIRECT SPARSE SOLVER RUNNING ON
 	1 HOST x 1 MPI RANK PER HOST x 8 THREADS PER RANK
        NUMBER OF EQUATIONS:  129474
        NUMBER OF RHS:        1
        NUMBER OF FLOPS:      4.020e+10
        SOLVER ELAPSED TIME:  281ms

               CONVERGENCE CHECKS FOR EQUILIBRIUM ITERATION     3


 AVERAGE FORCE                      0.671       TIME AVG. FORCE       0.360    
 LARGEST SCALED RESIDUAL FORCE      1.925E-05   AT NODE      19716   DOF  1
   INSTANCE: SH115                                                                           
  CORRESPONDING RESIDUAL FORCE      1.925E-05
 LARGEST INCREMENT OF DISP.         9.900E-06   AT NODE         11   DOF  2
   INSTANCE: SH115                                                                           
 LARGEST CORRECTION TO DISP.        7.963E-11   AT NODE      15505   DOF  1
   INSTANCE: SH115                                                                           
          THE FORCE     EQUILIBRIUM EQUATIONS HAVE CONVERGED

 ITERATION SUMMARY FOR THE INCREMENT:   3 TOTAL ITERATIONS, OF WHICH
   0 ARE SEVERE DISCONTINUITY ITERATIONS AND  3 ARE EQUILIBRIUM ITERATIONS.

 TIME INCREMENT COMPLETED   5.00    ,  FRACTION OF STEP COMPLETED  9.000E-02
 STEP TIME COMPLETED        90.0    ,  TOTAL TIME COMPLETED         90.0    


  INCREMENT    19 STARTS. ATTEMPT NUMBER  1, TIME INCREMENT   5.00    
 
	SYMMETRIC NEW DIRECT SPARSE SOLVER RUNNING ON
 	1 HOST x 1 MPI RANK PER HOST x 8 THREADS PER RANK
        NUMBER OF EQUATIONS:  129474
        NUMBER OF RHS:        1
        NUMBER OF FLOPS:      4.020e+10
        SOLVER ELAPSED TIME:  272ms

               CONVERGENCE CHECKS FOR EQUILIBRIUM ITERATION     1


 AVERAGE FORCE                      0.705       TIME AVG. FORCE       0.378    
 LARGEST SCALED RESIDUAL FORCE      3.545E-02   AT NODE      19436   DOF  3
   INSTANCE: SH115                                                                           
  CORRESPONDING RESIDUAL FORCE      3.545E-02
 LARGEST INCREMENT OF DISP.         9.900E-06   AT NODE         11   DOF  2
   INSTANCE: SH115                                                                           
 LARGEST CORRECTION TO DISP.        8.572E-08   AT NODE      11918   DOF  2
   INSTANCE: SH115                                                                           
          FORCE     EQUILIBRIUM NOT ACHIEVED WITHIN TOLERANCE.
 
	SYMMETRIC NEW DIRECT SPARSE SOLVER RUNNING ON
 	1 HOST x 1 MPI RANK PER HOST x 8 THREADS PER RANK
        NUMBER OF EQUATIONS:  129474
        NUMBER OF RHS:        1
        NUMBER OF FLOPS:      4.020e+10
        SOLVER ELAPSED TIME:  263ms

               CONVERGENCE CHECKS FOR EQUILIBRIUM ITERATION     2


 AVERAGE FORCE                      0.705       TIME AVG. FORCE       0.378    
 LARGEST SCALED RESIDUAL FORCE     -8.245E-04   AT NODE      31765   DOF  1
   INSTANCE: SH115                                                                           
  CORRESPONDING RESIDUAL FORCE     -8.245E-04
 LARGEST INCREMENT OF DISP.         9.900E-06   AT NODE         11   DOF  2
   INSTANCE: SH115                                                                           
 LARGEST CORRECTION TO DISP.       -3.001E-09   AT NODE      17514   DOF  2
   INSTANCE: SH115                                                                           
          THE FORCE     EQUILIBRIUM EQUATIONS HAVE CONVERGED

 ITERATION SUMMARY FOR THE INCREMENT:   2 TOTAL ITERATIONS, OF WHICH
   0 ARE SEVERE DISCONTINUITY ITERATIONS AND  2 ARE EQUILIBRIUM ITERATIONS.

 TIME INCREMENT COMPLETED   5.00    ,  FRACTION OF STEP COMPLETED  9.500E-02
 STEP TIME COMPLETED        95.0    ,  TOTAL TIME COMPLETED         95.0    


  INCREMENT    20 STARTS. ATTEMPT NUMBER  1, TIME INCREMENT   5.00    
 
	SYMMETRIC NEW DIRECT SPARSE SOLVER RUNNING ON
 	1 HOST x 1 MPI RANK PER HOST x 8 THREADS PER RANK
        NUMBER OF EQUATIONS:  129474
        NUMBER OF RHS:        1
        NUMBER OF FLOPS:      4.020e+10
        SOLVER ELAPSED TIME:  273ms

               CONVERGENCE CHECKS FOR EQUILIBRIUM ITERATION     1


 AVERAGE FORCE                      0.737       TIME AVG. FORCE       0.396    
 LARGEST SCALED RESIDUAL FORCE     -4.897E-02   AT NODE      24014   DOF  2
   INSTANCE: SH115                                                                           
  CORRESPONDING RESIDUAL FORCE     -4.897E-02
 LARGEST INCREMENT OF DISP.         9.900E-06   AT NODE         11   DOF  2
   INSTANCE: SH115                                                                           
 LARGEST CORRECTION TO DISP.        8.418E-08   AT NODE      35268   DOF  2
   INSTANCE: SH115                                                                           
          FORCE     EQUILIBRIUM NOT ACHIEVED WITHIN TOLERANCE.
 
	SYMMETRIC NEW DIRECT SPARSE SOLVER RUNNING ON
 	1 HOST x 1 MPI RANK PER HOST x 8 THREADS PER RANK
        NUMBER OF EQUATIONS:  129474
        NUMBER OF RHS:        1
        NUMBER OF FLOPS:      4.020e+10
        SOLVER ELAPSED TIME:  271ms

               CONVERGENCE CHECKS FOR EQUILIBRIUM ITERATION     2


 AVERAGE FORCE                      0.737       TIME AVG. FORCE       0.396    
 LARGEST SCALED RESIDUAL FORCE     -7.710E-04   AT NODE      24014   DOF  1
   INSTANCE: SH115                                                                           
  CORRESPONDING RESIDUAL FORCE     -7.710E-04
 LARGEST INCREMENT OF DISP.         9.900E-06   AT NODE         11   DOF  2
   INSTANCE: SH115                                                                           
 LARGEST CORRECTION TO DISP.       -3.315E-09   AT NODE       4920   DOF  1
   INSTANCE: SH115                                                                           
          THE FORCE     EQUILIBRIUM EQUATIONS HAVE CONVERGED

 ITERATION SUMMARY FOR THE INCREMENT:   2 TOTAL ITERATIONS, OF WHICH
   0 ARE SEVERE DISCONTINUITY ITERATIONS AND  2 ARE EQUILIBRIUM ITERATIONS.

 TIME INCREMENT COMPLETED   5.00    ,  FRACTION OF STEP COMPLETED  0.100    
 STEP TIME COMPLETED        100.    ,  TOTAL TIME COMPLETED         100.    


  INCREMENT    21 STARTS. ATTEMPT NUMBER  1, TIME INCREMENT   5.00    
 
	SYMMETRIC NEW DIRECT SPARSE SOLVER RUNNING ON
 	1 HOST x 1 MPI RANK PER HOST x 8 THREADS PER RANK
        NUMBER OF EQUATIONS:  129474
        NUMBER OF RHS:        1
        NUMBER OF FLOPS:      4.020e+10
        SOLVER ELAPSED TIME:  285ms

               CONVERGENCE CHECKS FOR EQUILIBRIUM ITERATION     1


 AVERAGE FORCE                      0.769       TIME AVG. FORCE       0.413    
 LARGEST SCALED RESIDUAL FORCE      3.706E-02   AT NODE      36057   DOF  2
   INSTANCE: SH115                                                                           
  CORRESPONDING RESIDUAL FORCE      3.706E-02
 LARGEST INCREMENT OF DISP.         9.900E-06   AT NODE         11   DOF  2
   INSTANCE: SH115                                                                           
 LARGEST CORRECTION TO DISP.        8.479E-08   AT NODE      12092   DOF  2
   INSTANCE: SH115                                                                           
          FORCE     EQUILIBRIUM NOT ACHIEVED WITHIN TOLERANCE.
 
	SYMMETRIC NEW DIRECT SPARSE SOLVER RUNNING ON
 	1 HOST x 1 MPI RANK PER HOST x 8 THREADS PER RANK
        NUMBER OF EQUATIONS:  129474
        NUMBER OF RHS:        1
        NUMBER OF FLOPS:      4.020e+10
        SOLVER ELAPSED TIME:  268ms

               CONVERGENCE CHECKS FOR EQUILIBRIUM ITERATION     2


 AVERAGE FORCE                      0.769       TIME AVG. FORCE       0.413    
 LARGEST SCALED RESIDUAL FORCE      9.461E-04   AT NODE      17001   DOF  2
   INSTANCE: SH115                                                                           
  CORRESPONDING RESIDUAL FORCE      9.461E-04
 LARGEST INCREMENT OF DISP.         9.900E-06   AT NODE         11   DOF  2
   INSTANCE: SH115                                                                           
 LARGEST CORRECTION TO DISP.        2.756E-09   AT NODE      37524   DOF  1
   INSTANCE: SH115                                                                           
          THE FORCE     EQUILIBRIUM EQUATIONS HAVE CONVERGED

 ITERATION SUMMARY FOR THE INCREMENT:   2 TOTAL ITERATIONS, OF WHICH
   0 ARE SEVERE DISCONTINUITY ITERATIONS AND  2 ARE EQUILIBRIUM ITERATIONS.

 TIME INCREMENT COMPLETED   5.00    ,  FRACTION OF STEP COMPLETED  0.105    
 STEP TIME COMPLETED        105.    ,  TOTAL TIME COMPLETED         105.    


  INCREMENT    22 STARTS. ATTEMPT NUMBER  1, TIME INCREMENT   5.00    
 
	SYMMETRIC NEW DIRECT SPARSE SOLVER RUNNING ON
 	1 HOST x 1 MPI RANK PER HOST x 8 THREADS PER RANK
        NUMBER OF EQUATIONS:  129474
        NUMBER OF RHS:        1
        NUMBER OF FLOPS:      4.020e+10
        SOLVER ELAPSED TIME:  281ms

               CONVERGENCE CHECKS FOR EQUILIBRIUM ITERATION     1


 AVERAGE FORCE                      0.800       TIME AVG. FORCE       0.431    
 LARGEST SCALED RESIDUAL FORCE      4.109E-02   AT NODE      38667   DOF  2
   INSTANCE: SH115                                                                           
  CORRESPONDING RESIDUAL FORCE      4.109E-02
 LARGEST INCREMENT OF DISP.         9.900E-06   AT NODE         11   DOF  2
   INSTANCE: SH115                                                                           
 LARGEST CORRECTION TO DISP.        7.944E-08   AT NODE      13397   DOF  2
   INSTANCE: SH115                                                                           
          FORCE     EQUILIBRIUM NOT ACHIEVED WITHIN TOLERANCE.
 
	SYMMETRIC NEW DIRECT SPARSE SOLVER RUNNING ON
 	1 HOST x 1 MPI RANK PER HOST x 8 THREADS PER RANK
        NUMBER OF EQUATIONS:  129474
        NUMBER OF RHS:        1
        NUMBER OF FLOPS:      4.020e+10
        SOLVER ELAPSED TIME:  278ms

               CONVERGENCE CHECKS FOR EQUILIBRIUM ITERATION     2


 AVERAGE FORCE                      0.800       TIME AVG. FORCE       0.431    
 LARGEST SCALED RESIDUAL FORCE      5.251E-04   AT NODE      17336   DOF  1
   INSTANCE: SH115                                                                           
  CORRESPONDING RESIDUAL FORCE      5.251E-04
 LARGEST INCREMENT OF DISP.         9.900E-06   AT NODE         11   DOF  2
   INSTANCE: SH115                                                                           
 LARGEST CORRECTION TO DISP.        3.751E-09   AT NODE      39617   DOF  1
   INSTANCE: SH115                                                                           
          THE FORCE     EQUILIBRIUM EQUATIONS HAVE CONVERGED

 ITERATION SUMMARY FOR THE INCREMENT:   2 TOTAL ITERATIONS, OF WHICH
   0 ARE SEVERE DISCONTINUITY ITERATIONS AND  2 ARE EQUILIBRIUM ITERATIONS.

 TIME INCREMENT COMPLETED   5.00    ,  FRACTION OF STEP COMPLETED  0.110    
 STEP TIME COMPLETED        110.    ,  TOTAL TIME COMPLETED         110.    


  INCREMENT    23 STARTS. ATTEMPT NUMBER  1, TIME INCREMENT   5.00    
 
	SYMMETRIC NEW DIRECT SPARSE SOLVER RUNNING ON
 	1 HOST x 1 MPI RANK PER HOST x 8 THREADS PER RANK
        NUMBER OF EQUATIONS:  129474
        NUMBER OF RHS:        1
        NUMBER OF FLOPS:      4.020e+10
        SOLVER ELAPSED TIME:  294ms

               CONVERGENCE CHECKS FOR EQUILIBRIUM ITERATION     1


 AVERAGE FORCE                      0.830       TIME AVG. FORCE       0.448    
 LARGEST SCALED RESIDUAL FORCE      3.610E-02   AT NODE      36152   DOF  3
   INSTANCE: SH115                                                                           
  CORRESPONDING RESIDUAL FORCE      3.610E-02
 LARGEST INCREMENT OF DISP.         9.900E-06   AT NODE         11   DOF  2
   INSTANCE: SH115                                                                           
 LARGEST CORRECTION TO DISP.        8.039E-08   AT NODE      35432   DOF  2
   INSTANCE: SH115                                                                           
          FORCE     EQUILIBRIUM NOT ACHIEVED WITHIN TOLERANCE.
 
	SYMMETRIC NEW DIRECT SPARSE SOLVER RUNNING ON
 	1 HOST x 1 MPI RANK PER HOST x 8 THREADS PER RANK
        NUMBER OF EQUATIONS:  129474
        NUMBER OF RHS:        1
        NUMBER OF FLOPS:      4.020e+10
        SOLVER ELAPSED TIME:  273ms

               CONVERGENCE CHECKS FOR EQUILIBRIUM ITERATION     2


 AVERAGE FORCE                      0.830       TIME AVG. FORCE       0.448    
 LARGEST SCALED RESIDUAL FORCE     -1.211E-03   AT NODE      14965   DOF  2
   INSTANCE: SH115                                                                           
  CORRESPONDING RESIDUAL FORCE     -1.211E-03
 LARGEST INCREMENT OF DISP.         9.900E-06   AT NODE         11   DOF  2
   INSTANCE: SH115                                                                           
 LARGEST CORRECTION TO DISP.        2.251E-09   AT NODE         56   DOF  2
   INSTANCE: SH115                                                                           
          THE FORCE     EQUILIBRIUM EQUATIONS HAVE CONVERGED

 ITERATION SUMMARY FOR THE INCREMENT:   2 TOTAL ITERATIONS, OF WHICH
   0 ARE SEVERE DISCONTINUITY ITERATIONS AND  2 ARE EQUILIBRIUM ITERATIONS.

 TIME INCREMENT COMPLETED   5.00    ,  FRACTION OF STEP COMPLETED  0.115    
 STEP TIME COMPLETED        115.    ,  TOTAL TIME COMPLETED         115.    


  INCREMENT    24 STARTS. ATTEMPT NUMBER  1, TIME INCREMENT   5.00    
 
	SYMMETRIC NEW DIRECT SPARSE SOLVER RUNNING ON
 	1 HOST x 1 MPI RANK PER HOST x 8 THREADS PER RANK
        NUMBER OF EQUATIONS:  129474
        NUMBER OF RHS:        1
        NUMBER OF FLOPS:      4.020e+10
        SOLVER ELAPSED TIME:  266ms

               CONVERGENCE CHECKS FOR EQUILIBRIUM ITERATION     1


 AVERAGE FORCE                      0.859       TIME AVG. FORCE       0.465    
 LARGEST SCALED RESIDUAL FORCE     -3.335E-02   AT NODE      39543   DOF  2
   INSTANCE: SH115                                                                           
  CORRESPONDING RESIDUAL FORCE     -3.335E-02
 LARGEST INCREMENT OF DISP.         9.900E-06   AT NODE         11   DOF  2
   INSTANCE: SH115                                                                           
 LARGEST CORRECTION TO DISP.        7.845E-08   AT NODE      35577   DOF  2
   INSTANCE: SH115                                                                           
          FORCE     EQUILIBRIUM NOT ACHIEVED WITHIN TOLERANCE.
 
	SYMMETRIC NEW DIRECT SPARSE SOLVER RUNNING ON
 	1 HOST x 1 MPI RANK PER HOST x 8 THREADS PER RANK
        NUMBER OF EQUATIONS:  129474
        NUMBER OF RHS:        1
        NUMBER OF FLOPS:      4.020e+10
        SOLVER ELAPSED TIME:  277ms

               CONVERGENCE CHECKS FOR EQUILIBRIUM ITERATION     2


 AVERAGE FORCE                      0.859       TIME AVG. FORCE       0.465    
 LARGEST SCALED RESIDUAL FORCE      1.742E-03   AT NODE      32076   DOF  2
   INSTANCE: SH115                                                                           
  CORRESPONDING RESIDUAL FORCE      1.742E-03
 LARGEST INCREMENT OF DISP.         9.900E-06   AT NODE         11   DOF  2
   INSTANCE: SH115                                                                           
 LARGEST CORRECTION TO DISP.        3.120E-09   AT NODE      15038   DOF  1
   INSTANCE: SH115                                                                           
          THE FORCE     EQUILIBRIUM EQUATIONS HAVE CONVERGED

 ITERATION SUMMARY FOR THE INCREMENT:   2 TOTAL ITERATIONS, OF WHICH
   0 ARE SEVERE DISCONTINUITY ITERATIONS AND  2 ARE EQUILIBRIUM ITERATIONS.

 TIME INCREMENT COMPLETED   5.00    ,  FRACTION OF STEP COMPLETED  0.120    
 STEP TIME COMPLETED        120.    ,  TOTAL TIME COMPLETED         120.    


  INCREMENT    25 STARTS. ATTEMPT NUMBER  1, TIME INCREMENT   5.00    
 
	SYMMETRIC NEW DIRECT SPARSE SOLVER RUNNING ON
 	1 HOST x 1 MPI RANK PER HOST x 8 THREADS PER RANK
        NUMBER OF EQUATIONS:  129474
        NUMBER OF RHS:        1
        NUMBER OF FLOPS:      4.020e+10
        SOLVER ELAPSED TIME:  276ms

               CONVERGENCE CHECKS FOR EQUILIBRIUM ITERATION     1


 AVERAGE FORCE                      0.887       TIME AVG. FORCE       0.482    
 LARGEST SCALED RESIDUAL FORCE      8.832E-02   AT NODE      26426   DOF  1
   INSTANCE: SH115                                                                           
  CORRESPONDING RESIDUAL FORCE      8.832E-02
 LARGEST INCREMENT OF DISP.         9.900E-06   AT NODE         11   DOF  2
   INSTANCE: SH115                                                                           
 LARGEST CORRECTION TO DISP.        9.648E-08   AT NODE      37839   DOF  2
   INSTANCE: SH115                                                                           
          FORCE     EQUILIBRIUM NOT ACHIEVED WITHIN TOLERANCE.
 
	SYMMETRIC NEW DIRECT SPARSE SOLVER RUNNING ON
 	1 HOST x 1 MPI RANK PER HOST x 8 THREADS PER RANK
        NUMBER OF EQUATIONS:  129474
        NUMBER OF RHS:        1
        NUMBER OF FLOPS:      4.020e+10
        SOLVER ELAPSED TIME:  276ms

               CONVERGENCE CHECKS FOR EQUILIBRIUM ITERATION     2


 AVERAGE FORCE                      0.887       TIME AVG. FORCE       0.482    
 LARGEST SCALED RESIDUAL FORCE      1.824E-02   AT NODE      25386   DOF  2
   INSTANCE: SH115                                                                           
  CORRESPONDING RESIDUAL FORCE      1.824E-02
 LARGEST INCREMENT OF DISP.         9.900E-06   AT NODE         11   DOF  2
   INSTANCE: SH115                                                                           
 LARGEST CORRECTION TO DISP.        1.285E-08   AT NODE       8464   DOF  2
   INSTANCE: SH115                                                                           
          FORCE     EQUILIBRIUM NOT ACHIEVED WITHIN TOLERANCE.
 
	SYMMETRIC NEW DIRECT SPARSE SOLVER RUNNING ON
 	1 HOST x 1 MPI RANK PER HOST x 8 THREADS PER RANK
        NUMBER OF EQUATIONS:  129474
        NUMBER OF RHS:        1
        NUMBER OF FLOPS:      4.020e+10
        SOLVER ELAPSED TIME:  268ms

               CONVERGENCE CHECKS FOR EQUILIBRIUM ITERATION     3


 AVERAGE FORCE                      0.887       TIME AVG. FORCE       0.482    
 LARGEST SCALED RESIDUAL FORCE     -1.156E-03   AT NODE      30194   DOF  2
   INSTANCE: SH115                                                                           
  CORRESPONDING RESIDUAL FORCE     -1.156E-03
 LARGEST INCREMENT OF DISP.         9.900E-06   AT NODE         11   DOF  2
   INSTANCE: SH115                                                                           
 LARGEST CORRECTION TO DISP.        6.617E-10   AT NODE      30194   DOF  2
   INSTANCE: SH115                                                                           
          THE FORCE     EQUILIBRIUM EQUATIONS HAVE CONVERGED

 ITERATION SUMMARY FOR THE INCREMENT:   3 TOTAL ITERATIONS, OF WHICH
   0 ARE SEVERE DISCONTINUITY ITERATIONS AND  3 ARE EQUILIBRIUM ITERATIONS.

 TIME INCREMENT COMPLETED   5.00    ,  FRACTION OF STEP COMPLETED  0.125    
 STEP TIME COMPLETED        125.    ,  TOTAL TIME COMPLETED         125.    


  INCREMENT    26 STARTS. ATTEMPT NUMBER  1, TIME INCREMENT   5.00    
 
	SYMMETRIC NEW DIRECT SPARSE SOLVER RUNNING ON
 	1 HOST x 1 MPI RANK PER HOST x 8 THREADS PER RANK
        NUMBER OF EQUATIONS:  129474
        NUMBER OF RHS:        1
        NUMBER OF FLOPS:      4.020e+10
        SOLVER ELAPSED TIME:  271ms

               CONVERGENCE CHECKS FOR EQUILIBRIUM ITERATION     1


 AVERAGE FORCE                      0.914       TIME AVG. FORCE       0.499    
 LARGEST SCALED RESIDUAL FORCE     -0.103       AT NODE      29149   DOF  2
   INSTANCE: SH115                                                                           
  CORRESPONDING RESIDUAL FORCE     -0.103    
 LARGEST INCREMENT OF DISP.         9.900E-06   AT NODE         11   DOF  2
   INSTANCE: SH115                                                                           
 LARGEST CORRECTION TO DISP.        1.226E-07   AT NODE       7976   DOF  2
   INSTANCE: SH115                                                                           
          FORCE     EQUILIBRIUM NOT ACHIEVED WITHIN TOLERANCE.
 
	SYMMETRIC NEW DIRECT SPARSE SOLVER RUNNING ON
 	1 HOST x 1 MPI RANK PER HOST x 8 THREADS PER RANK
        NUMBER OF EQUATIONS:  129474
        NUMBER OF RHS:        1
        NUMBER OF FLOPS:      4.020e+10
        SOLVER ELAPSED TIME:  271ms

               CONVERGENCE CHECKS FOR EQUILIBRIUM ITERATION     2


 AVERAGE FORCE                      0.914       TIME AVG. FORCE       0.499    
 LARGEST SCALED RESIDUAL FORCE      3.361E-02   AT NODE      29149   DOF  2
   INSTANCE: SH115                                                                           
  CORRESPONDING RESIDUAL FORCE      3.361E-02
 LARGEST INCREMENT OF DISP.         9.900E-06   AT NODE         11   DOF  2
   INSTANCE: SH115                                                                           
 LARGEST CORRECTION TO DISP.        1.158E-08   AT NODE      29148   DOF  1
   INSTANCE: SH115                                                                           
          FORCE     EQUILIBRIUM NOT ACHIEVED WITHIN TOLERANCE.
 
	SYMMETRIC NEW DIRECT SPARSE SOLVER RUNNING ON
 	1 HOST x 1 MPI RANK PER HOST x 8 THREADS PER RANK
        NUMBER OF EQUATIONS:  129474
        NUMBER OF RHS:        1
        NUMBER OF FLOPS:      4.020e+10
        SOLVER ELAPSED TIME:  272ms

               CONVERGENCE CHECKS FOR EQUILIBRIUM ITERATION     3


 AVERAGE FORCE                      0.914       TIME AVG. FORCE       0.499    
 LARGEST SCALED RESIDUAL FORCE     -6.010E-03   AT NODE      25925   DOF  2
   INSTANCE: SH115                                                                           
  CORRESPONDING RESIDUAL FORCE     -6.010E-03
 LARGEST INCREMENT OF DISP.         9.900E-06   AT NODE         11   DOF  2
   INSTANCE: SH115                                                                           
 LARGEST CORRECTION TO DISP.       -1.830E-09   AT NODE       7421   DOF  1
   INSTANCE: SH115                                                                           
          FORCE     EQUILIBRIUM NOT ACHIEVED WITHIN TOLERANCE.
 
	SYMMETRIC NEW DIRECT SPARSE SOLVER RUNNING ON
 	1 HOST x 1 MPI RANK PER HOST x 8 THREADS PER RANK
        NUMBER OF EQUATIONS:  129474
        NUMBER OF RHS:        1
        NUMBER OF FLOPS:      4.020e+10
        SOLVER ELAPSED TIME:  278ms

               CONVERGENCE CHECKS FOR EQUILIBRIUM ITERATION     4


 AVERAGE FORCE                      0.914       TIME AVG. FORCE       0.499    
 LARGEST SCALED RESIDUAL FORCE     -5.719E-05   AT NODE      29149   DOF  2
   INSTANCE: SH115                                                                           
  CORRESPONDING RESIDUAL FORCE     -5.719E-05
 LARGEST INCREMENT OF DISP.         9.900E-06   AT NODE         11   DOF  2
   INSTANCE: SH115                                                                           
 LARGEST CORRECTION TO DISP.        7.996E-11   AT NODE       7421   DOF  2
   INSTANCE: SH115                                                                           
          THE FORCE     EQUILIBRIUM EQUATIONS HAVE CONVERGED

 ITERATION SUMMARY FOR THE INCREMENT:   4 TOTAL ITERATIONS, OF WHICH
   0 ARE SEVERE DISCONTINUITY ITERATIONS AND  4 ARE EQUILIBRIUM ITERATIONS.

 TIME INCREMENT COMPLETED   5.00    ,  FRACTION OF STEP COMPLETED  0.130    
 STEP TIME COMPLETED        130.    ,  TOTAL TIME COMPLETED         130.    


  INCREMENT    27 STARTS. ATTEMPT NUMBER  1, TIME INCREMENT   5.00    
 
	SYMMETRIC NEW DIRECT SPARSE SOLVER RUNNING ON
 	1 HOST x 1 MPI RANK PER HOST x 8 THREADS PER RANK
        NUMBER OF EQUATIONS:  129474
        NUMBER OF RHS:        1
        NUMBER OF FLOPS:      4.020e+10
        SOLVER ELAPSED TIME:  287ms

               CONVERGENCE CHECKS FOR EQUILIBRIUM ITERATION     1


 AVERAGE FORCE                      0.939       TIME AVG. FORCE       0.515    
 LARGEST SCALED RESIDUAL FORCE     -0.157       AT NODE      25382   DOF  2
   INSTANCE: SH115                                                                           
  CORRESPONDING RESIDUAL FORCE     -0.157    
 LARGEST INCREMENT OF DISP.         9.902E-06   AT NODE         51   DOF  2
   INSTANCE: SH115                                                                           
 LARGEST CORRECTION TO DISP.        1.157E-07   AT NODE      10336   DOF  2
   INSTANCE: SH115                                                                           
          FORCE     EQUILIBRIUM NOT ACHIEVED WITHIN TOLERANCE.
 
	SYMMETRIC NEW DIRECT SPARSE SOLVER RUNNING ON
 	1 HOST x 1 MPI RANK PER HOST x 8 THREADS PER RANK
        NUMBER OF EQUATIONS:  129474
        NUMBER OF RHS:        1
        NUMBER OF FLOPS:      4.020e+10
        SOLVER ELAPSED TIME:  277ms

               CONVERGENCE CHECKS FOR EQUILIBRIUM ITERATION     2


 AVERAGE FORCE                      0.939       TIME AVG. FORCE       0.515    
 LARGEST SCALED RESIDUAL FORCE      9.328E-02   AT NODE      25382   DOF  2
   INSTANCE: SH115                                                                           
  CORRESPONDING RESIDUAL FORCE      9.328E-02
 LARGEST INCREMENT OF DISP.         9.902E-06   AT NODE         51   DOF  2
   INSTANCE: SH115                                                                           
 LARGEST CORRECTION TO DISP.        2.097E-08   AT NODE      25381   DOF  1
   INSTANCE: SH115                                                                           
          FORCE     EQUILIBRIUM NOT ACHIEVED WITHIN TOLERANCE.
 
	SYMMETRIC NEW DIRECT SPARSE SOLVER RUNNING ON
 	1 HOST x 1 MPI RANK PER HOST x 8 THREADS PER RANK
        NUMBER OF EQUATIONS:  129474
        NUMBER OF RHS:        1
        NUMBER OF FLOPS:      4.020e+10
        SOLVER ELAPSED TIME:  274ms

               CONVERGENCE CHECKS FOR EQUILIBRIUM ITERATION     3


 AVERAGE FORCE                      0.939       TIME AVG. FORCE       0.515    
 LARGEST SCALED RESIDUAL FORCE      1.760E-03   AT NODE      31030   DOF  2
   INSTANCE: SH115                                                                           
  CORRESPONDING RESIDUAL FORCE      1.760E-03
 LARGEST INCREMENT OF DISP.         9.902E-06   AT NODE         51   DOF  2
   INSTANCE: SH115                                                                           
 LARGEST CORRECTION TO DISP.       -1.191E-09   AT NODE      25381   DOF  2
   INSTANCE: SH115                                                                           
          THE FORCE     EQUILIBRIUM EQUATIONS HAVE CONVERGED

 ITERATION SUMMARY FOR THE INCREMENT:   3 TOTAL ITERATIONS, OF WHICH
   0 ARE SEVERE DISCONTINUITY ITERATIONS AND  3 ARE EQUILIBRIUM ITERATIONS.

 TIME INCREMENT COMPLETED   5.00    ,  FRACTION OF STEP COMPLETED  0.135    
 STEP TIME COMPLETED        135.    ,  TOTAL TIME COMPLETED         135.    


  INCREMENT    28 STARTS. ATTEMPT NUMBER  1, TIME INCREMENT   5.00    
 
	SYMMETRIC NEW DIRECT SPARSE SOLVER RUNNING ON
 	1 HOST x 1 MPI RANK PER HOST x 8 THREADS PER RANK
        NUMBER OF EQUATIONS:  129474
        NUMBER OF RHS:        1
        NUMBER OF FLOPS:      4.020e+10
        SOLVER ELAPSED TIME:  275ms

               CONVERGENCE CHECKS FOR EQUILIBRIUM ITERATION     1


 AVERAGE FORCE                      0.964       TIME AVG. FORCE       0.531    
 LARGEST SCALED RESIDUAL FORCE      0.188       AT NODE      31571   DOF  2
   INSTANCE: SH115                                                                           
  CORRESPONDING RESIDUAL FORCE      0.188    
 LARGEST INCREMENT OF DISP.         9.972E-06   AT NODE         51   DOF  2
   INSTANCE: SH115                                                                           
 LARGEST CORRECTION TO DISP.        1.286E-07   AT NODE      10334   DOF  2
   INSTANCE: SH115                                                                           
          FORCE     EQUILIBRIUM NOT ACHIEVED WITHIN TOLERANCE.
 
	SYMMETRIC NEW DIRECT SPARSE SOLVER RUNNING ON
 	1 HOST x 1 MPI RANK PER HOST x 8 THREADS PER RANK
        NUMBER OF EQUATIONS:  129474
        NUMBER OF RHS:        1
        NUMBER OF FLOPS:      4.020e+10
        SOLVER ELAPSED TIME:  281ms

               CONVERGENCE CHECKS FOR EQUILIBRIUM ITERATION     2


 AVERAGE FORCE                      0.963       TIME AVG. FORCE       0.531    
 LARGEST SCALED RESIDUAL FORCE      9.839E-02   AT NODE      25381   DOF  2
   INSTANCE: SH115                                                                           
  CORRESPONDING RESIDUAL FORCE      9.839E-02
 LARGEST INCREMENT OF DISP.         9.972E-06   AT NODE         51   DOF  2
   INSTANCE: SH115                                                                           
 LARGEST CORRECTION TO DISP.        2.035E-08   AT NODE      25380   DOF  1
   INSTANCE: SH115                                                                           
          FORCE     EQUILIBRIUM NOT ACHIEVED WITHIN TOLERANCE.
 
	SYMMETRIC NEW DIRECT SPARSE SOLVER RUNNING ON
 	1 HOST x 1 MPI RANK PER HOST x 8 THREADS PER RANK
        NUMBER OF EQUATIONS:  129474
        NUMBER OF RHS:        1
        NUMBER OF FLOPS:      4.020e+10
        SOLVER ELAPSED TIME:  275ms

               CONVERGENCE CHECKS FOR EQUILIBRIUM ITERATION     3


 AVERAGE FORCE                      0.963       TIME AVG. FORCE       0.531    
 LARGEST SCALED RESIDUAL FORCE      5.230E-03   AT NODE      25380   DOF  2
   INSTANCE: SH115                                                                           
  CORRESPONDING RESIDUAL FORCE      5.230E-03
 LARGEST INCREMENT OF DISP.         9.972E-06   AT NODE         51   DOF  2
   INSTANCE: SH115                                                                           
 LARGEST CORRECTION TO DISP.       -1.845E-09   AT NODE      25889   DOF  2
   INSTANCE: SH115                                                                           
          FORCE     EQUILIBRIUM NOT ACHIEVED WITHIN TOLERANCE.
 
	SYMMETRIC NEW DIRECT SPARSE SOLVER RUNNING ON
 	1 HOST x 1 MPI RANK PER HOST x 8 THREADS PER RANK
        NUMBER OF EQUATIONS:  129474
        NUMBER OF RHS:        1
        NUMBER OF FLOPS:      4.020e+10
        SOLVER ELAPSED TIME:  269ms

               CONVERGENCE CHECKS FOR EQUILIBRIUM ITERATION     4


 AVERAGE FORCE                      0.963       TIME AVG. FORCE       0.531    
 LARGEST SCALED RESIDUAL FORCE      2.637E-04   AT NODE      27263   DOF  2
   INSTANCE: SH115                                                                           
  CORRESPONDING RESIDUAL FORCE      2.637E-04
 LARGEST INCREMENT OF DISP.         9.972E-06   AT NODE         51   DOF  2
   INSTANCE: SH115                                                                           
 LARGEST CORRECTION TO DISP.        8.920E-11   AT NODE      25380   DOF  2
   INSTANCE: SH115                                                                           
          THE FORCE     EQUILIBRIUM EQUATIONS HAVE CONVERGED

 ITERATION SUMMARY FOR THE INCREMENT:   4 TOTAL ITERATIONS, OF WHICH
   0 ARE SEVERE DISCONTINUITY ITERATIONS AND  4 ARE EQUILIBRIUM ITERATIONS.

 TIME INCREMENT COMPLETED   5.00    ,  FRACTION OF STEP COMPLETED  0.140    
 STEP TIME COMPLETED        140.    ,  TOTAL TIME COMPLETED         140.    


  INCREMENT    29 STARTS. ATTEMPT NUMBER  1, TIME INCREMENT   5.00    
 
	SYMMETRIC NEW DIRECT SPARSE SOLVER RUNNING ON
 	1 HOST x 1 MPI RANK PER HOST x 8 THREADS PER RANK
        NUMBER OF EQUATIONS:  129474
        NUMBER OF RHS:        1
        NUMBER OF FLOPS:      4.020e+10
        SOLVER ELAPSED TIME:  304ms

               CONVERGENCE CHECKS FOR EQUILIBRIUM ITERATION     1


 AVERAGE FORCE                      0.986       TIME AVG. FORCE       0.547    
 LARGEST SCALED RESIDUAL FORCE     -0.228       AT NODE      30589   DOF  2
   INSTANCE: SH115                                                                           
  CORRESPONDING RESIDUAL FORCE     -0.228    
 LARGEST INCREMENT OF DISP.         1.004E-05   AT NODE         51   DOF  2
   INSTANCE: SH115                                                                           
 LARGEST CORRECTION TO DISP.        1.474E-07   AT NODE      10332   DOF  2
   INSTANCE: SH115                                                                           
          FORCE     EQUILIBRIUM NOT ACHIEVED WITHIN TOLERANCE.
 
	SYMMETRIC NEW DIRECT SPARSE SOLVER RUNNING ON
 	1 HOST x 1 MPI RANK PER HOST x 8 THREADS PER RANK
        NUMBER OF EQUATIONS:  129474
        NUMBER OF RHS:        1
        NUMBER OF FLOPS:      4.020e+10
        SOLVER ELAPSED TIME:  277ms

               CONVERGENCE CHECKS FOR EQUILIBRIUM ITERATION     2


 AVERAGE FORCE                      0.986       TIME AVG. FORCE       0.547    
 LARGEST SCALED RESIDUAL FORCE     -3.885E-02   AT NODE      29688   DOF  2
   INSTANCE: SH115                                                                           
  CORRESPONDING RESIDUAL FORCE     -3.885E-02
 LARGEST INCREMENT OF DISP.         1.004E-05   AT NODE         51   DOF  2
   INSTANCE: SH115                                                                           
[...]
 LARGEST CORRECTION TO DISP.       -3.477E-10   AT NODE       9825   DOF  1
   INSTANCE: SH115                                                                           
          FORCE     EQUILIBRIUM NOT ACHIEVED WITHIN TOLERANCE.
 
	SYMMETRIC NEW DIRECT SPARSE SOLVER RUNNING ON
 	1 HOST x 1 MPI RANK PER HOST x 8 THREADS PER RANK
        NUMBER OF EQUATIONS:  129474
        NUMBER OF RHS:        1
        NUMBER OF FLOPS:      4.020e+10
        SOLVER ELAPSED TIME:  274ms

               CONVERGENCE CHECKS FOR EQUILIBRIUM ITERATION     4


 AVERAGE FORCE                       1.31       TIME AVG. FORCE        1.13    
 LARGEST SCALED RESIDUAL FORCE      4.348E-03   AT NODE      11040   DOF  2
   INSTANCE: SH115                                                                           
  CORRESPONDING RESIDUAL FORCE      4.348E-03
 LARGEST INCREMENT OF DISP.         1.403E-07   AT NODE       7993   DOF  2
   INSTANCE: SH115                                                                           
 LARGEST CORRECTION TO DISP.       -2.784E-10   AT NODE      11329   DOF  2
   INSTANCE: SH115                                                                           
          THE FORCE     EQUILIBRIUM EQUATIONS HAVE CONVERGED
          TIME INCREMENT MAY NOW INCREASE TO    0.100    

 ITERATION SUMMARY FOR THE INCREMENT:   4 TOTAL ITERATIONS, OF WHICH
   0 ARE SEVERE DISCONTINUITY ITERATIONS AND  4 ARE EQUILIBRIUM ITERATIONS.

 TIME INCREMENT COMPLETED  6.640E-02,  FRACTION OF STEP COMPLETED  0.366    
 STEP TIME COMPLETED        366.    ,  TOTAL TIME COMPLETED         366.    


  INCREMENT   147 STARTS. ATTEMPT NUMBER  1, TIME INCREMENT  0.100    
 
	SYMMETRIC NEW DIRECT SPARSE SOLVER RUNNING ON
 	1 HOST x 1 MPI RANK PER HOST x 8 THREADS PER RANK
        NUMBER OF EQUATIONS:  129474
        NUMBER OF RHS:        1
        NUMBER OF FLOPS:      4.020e+10
        SOLVER ELAPSED TIME:  286ms

               CONVERGENCE CHECKS FOR EQUILIBRIUM ITERATION     1


 AVERAGE FORCE                       1.31       TIME AVG. FORCE        1.13    
 LARGEST SCALED RESIDUAL FORCE     -5.689E-03   AT NODE      31553   DOF  2
   INSTANCE: SH115                                                                           
  CORRESPONDING RESIDUAL FORCE     -5.689E-03
 LARGEST INCREMENT OF DISP.         2.106E-07   AT NODE       7993   DOF  2
   INSTANCE: SH115                                                                           
 LARGEST CORRECTION TO DISP.       -5.782E-10   AT NODE      11328   DOF  2
   INSTANCE: SH115                                                                           
          FORCE     EQUILIBRIUM NOT ACHIEVED WITHIN TOLERANCE.
 
	SYMMETRIC NEW DIRECT SPARSE SOLVER RUNNING ON
 	1 HOST x 1 MPI RANK PER HOST x 8 THREADS PER RANK
        NUMBER OF EQUATIONS:  129474
        NUMBER OF RHS:        1
        NUMBER OF FLOPS:      4.020e+10
        SOLVER ELAPSED TIME:  287ms

               CONVERGENCE CHECKS FOR EQUILIBRIUM ITERATION     2


 AVERAGE FORCE                       1.31       TIME AVG. FORCE        1.13    
 LARGEST SCALED RESIDUAL FORCE      8.089E-03   AT NODE      11328   DOF  2
   INSTANCE: SH115                                                                           
  CORRESPONDING RESIDUAL FORCE      8.089E-03
 LARGEST INCREMENT OF DISP.         2.107E-07   AT NODE       7993   DOF  2
   INSTANCE: SH115                                                                           
 LARGEST CORRECTION TO DISP.       -3.966E-10   AT NODE      11328   DOF  1
   INSTANCE: SH115                                                                           
          FORCE     EQUILIBRIUM NOT ACHIEVED WITHIN TOLERANCE.
 
	SYMMETRIC NEW DIRECT SPARSE SOLVER RUNNING ON
 	1 HOST x 1 MPI RANK PER HOST x 8 THREADS PER RANK
        NUMBER OF EQUATIONS:  129474
        NUMBER OF RHS:        1
        NUMBER OF FLOPS:      4.020e+10
        SOLVER ELAPSED TIME:  284ms

               CONVERGENCE CHECKS FOR EQUILIBRIUM ITERATION     3


 AVERAGE FORCE                       1.31       TIME AVG. FORCE        1.13    
 LARGEST SCALED RESIDUAL FORCE      3.588E-03   AT NODE      11328   DOF  1
   INSTANCE: SH115                                                                           
  CORRESPONDING RESIDUAL FORCE      3.588E-03
 LARGEST INCREMENT OF DISP.         2.108E-07   AT NODE       7986   DOF  2
   INSTANCE: SH115                                                                           
 LARGEST CORRECTION TO DISP.        3.210E-10   AT NODE      11328   DOF  2
   INSTANCE: SH115                                                                           
          THE FORCE     EQUILIBRIUM EQUATIONS HAVE CONVERGED
          TIME INCREMENT MAY NOW INCREASE TO    0.149    

 ITERATION SUMMARY FOR THE INCREMENT:   3 TOTAL ITERATIONS, OF WHICH
   0 ARE SEVERE DISCONTINUITY ITERATIONS AND  3 ARE EQUILIBRIUM ITERATIONS.

 TIME INCREMENT COMPLETED  0.100    ,  FRACTION OF STEP COMPLETED  0.366    
 STEP TIME COMPLETED        366.    ,  TOTAL TIME COMPLETED         366.    


  INCREMENT   148 STARTS. ATTEMPT NUMBER  1, TIME INCREMENT  0.149    
 
	SYMMETRIC NEW DIRECT SPARSE SOLVER RUNNING ON
 	1 HOST x 1 MPI RANK PER HOST x 8 THREADS PER RANK
        NUMBER OF EQUATIONS:  129474
        NUMBER OF RHS:        1
        NUMBER OF FLOPS:      4.020e+10
        SOLVER ELAPSED TIME:  274ms

               CONVERGENCE CHECKS FOR EQUILIBRIUM ITERATION     1


 AVERAGE FORCE                       1.31       TIME AVG. FORCE        1.13    
 LARGEST SCALED RESIDUAL FORCE      2.176E-02   AT NODE      31553   DOF  2
   INSTANCE: SH115                                                                           
  CORRESPONDING RESIDUAL FORCE      2.176E-02
 LARGEST INCREMENT OF DISP.         3.162E-07   AT NODE       7986   DOF  2
   INSTANCE: SH115                                                                           
 LARGEST CORRECTION TO DISP.        8.579E-10   AT NODE      11328   DOF  1
   INSTANCE: SH115                                                                           
          FORCE     EQUILIBRIUM NOT ACHIEVED WITHIN TOLERANCE.
 
	SYMMETRIC NEW DIRECT SPARSE SOLVER RUNNING ON
 	1 HOST x 1 MPI RANK PER HOST x 8 THREADS PER RANK
        NUMBER OF EQUATIONS:  129474
        NUMBER OF RHS:        1
        NUMBER OF FLOPS:      4.020e+10
        SOLVER ELAPSED TIME:  277ms

               CONVERGENCE CHECKS FOR EQUILIBRIUM ITERATION     2


 AVERAGE FORCE                       1.31       TIME AVG. FORCE        1.13    
 LARGEST SCALED RESIDUAL FORCE     -1.532E-02   AT NODE      11328   DOF  2
   INSTANCE: SH115                                                                           
  CORRESPONDING RESIDUAL FORCE     -1.532E-02
 LARGEST INCREMENT OF DISP.         3.163E-07   AT NODE       7986   DOF  2
   INSTANCE: SH115                                                                           
 LARGEST CORRECTION TO DISP.       -6.780E-10   AT NODE      11328   DOF  2
   INSTANCE: SH115                                                                           
          FORCE     EQUILIBRIUM NOT ACHIEVED WITHIN TOLERANCE.
 
	SYMMETRIC NEW DIRECT SPARSE SOLVER RUNNING ON
 	1 HOST x 1 MPI RANK PER HOST x 8 THREADS PER RANK
        NUMBER OF EQUATIONS:  129474
        NUMBER OF RHS:        1
        NUMBER OF FLOPS:      4.020e+10
        SOLVER ELAPSED TIME:  274ms

               CONVERGENCE CHECKS FOR EQUILIBRIUM ITERATION     3


 AVERAGE FORCE                       1.31       TIME AVG. FORCE        1.13    
 LARGEST SCALED RESIDUAL FORCE     -1.080E-02   AT NODE      31553   DOF  2
   INSTANCE: SH115                                                                           
  CORRESPONDING RESIDUAL FORCE     -1.080E-02
 LARGEST INCREMENT OF DISP.         3.164E-07   AT NODE       7986   DOF  2
   INSTANCE: SH115                                                                           
 LARGEST CORRECTION TO DISP.       -6.019E-10   AT NODE      11328   DOF  2
   INSTANCE: SH115                                                                           
          FORCE     EQUILIBRIUM NOT ACHIEVED WITHIN TOLERANCE.
 
	SYMMETRIC NEW DIRECT SPARSE SOLVER RUNNING ON
 	1 HOST x 1 MPI RANK PER HOST x 8 THREADS PER RANK
        NUMBER OF EQUATIONS:  129474
        NUMBER OF RHS:        1
        NUMBER OF FLOPS:      4.020e+10
        SOLVER ELAPSED TIME:  283ms

               CONVERGENCE CHECKS FOR EQUILIBRIUM ITERATION     4


 AVERAGE FORCE                       1.31       TIME AVG. FORCE        1.13    
 LARGEST SCALED RESIDUAL FORCE      1.315E-02   AT NODE      11328   DOF  2
   INSTANCE: SH115                                                                           
  CORRESPONDING RESIDUAL FORCE      1.315E-02
 LARGEST INCREMENT OF DISP.         3.164E-07   AT NODE       7986   DOF  2
   INSTANCE: SH115                                                                           
 LARGEST CORRECTION TO DISP.       -4.897E-10   AT NODE      11328   DOF  1
   INSTANCE: SH115                                                                           
          FORCE     EQUILIBRIUM NOT ACHIEVED WITHIN TOLERANCE.
 
	SYMMETRIC NEW DIRECT SPARSE SOLVER RUNNING ON
 	1 HOST x 1 MPI RANK PER HOST x 8 THREADS PER RANK
        NUMBER OF EQUATIONS:  129474
        NUMBER OF RHS:        1
        NUMBER OF FLOPS:      4.020e+10
        SOLVER ELAPSED TIME:  279ms

               CONVERGENCE CHECKS FOR EQUILIBRIUM ITERATION     5


 AVERAGE FORCE                       1.31       TIME AVG. FORCE        1.13    
 LARGEST SCALED RESIDUAL FORCE      4.907E-03   AT NODE      11328   DOF  1
   INSTANCE: SH115                                                                           
  CORRESPONDING RESIDUAL FORCE      4.907E-03
 LARGEST INCREMENT OF DISP.         3.165E-07   AT NODE       7986   DOF  2
   INSTANCE: SH115                                                                           
 LARGEST CORRECTION TO DISP.        4.758E-10   AT NODE      11328   DOF  2
   INSTANCE: SH115                                                                           
          THE FORCE     EQUILIBRIUM EQUATIONS HAVE CONVERGED

 ITERATION SUMMARY FOR THE INCREMENT:   5 TOTAL ITERATIONS, OF WHICH
   0 ARE SEVERE DISCONTINUITY ITERATIONS AND  5 ARE EQUILIBRIUM ITERATIONS.

 TIME INCREMENT COMPLETED  0.149    ,  FRACTION OF STEP COMPLETED  0.366    
 STEP TIME COMPLETED        366.    ,  TOTAL TIME COMPLETED         366.    


  INCREMENT   149 STARTS. ATTEMPT NUMBER  1, TIME INCREMENT  0.149    
 
	SYMMETRIC NEW DIRECT SPARSE SOLVER RUNNING ON
 	1 HOST x 1 MPI RANK PER HOST x 8 THREADS PER RANK
        NUMBER OF EQUATIONS:  129474
        NUMBER OF RHS:        1
        NUMBER OF FLOPS:      4.020e+10
        SOLVER ELAPSED TIME:  315ms

               CONVERGENCE CHECKS FOR EQUILIBRIUM ITERATION     1


 AVERAGE FORCE                       1.31       TIME AVG. FORCE        1.14    
 LARGEST SCALED RESIDUAL FORCE      1.664E-02   AT NODE      31553   DOF  2
   INSTANCE: SH115                                                                           
  CORRESPONDING RESIDUAL FORCE      1.664E-02
 LARGEST INCREMENT OF DISP.         3.164E-07   AT NODE       7986   DOF  2
   INSTANCE: SH115                                                                           
 LARGEST CORRECTION TO DISP.       -5.322E-10   AT NODE      11040   DOF  1
   INSTANCE: SH115                                                                           
          FORCE     EQUILIBRIUM NOT ACHIEVED WITHIN TOLERANCE.
 
	SYMMETRIC NEW DIRECT SPARSE SOLVER RUNNING ON
 	1 HOST x 1 MPI RANK PER HOST x 8 THREADS PER RANK
        NUMBER OF EQUATIONS:  129474
        NUMBER OF RHS:        1
        NUMBER OF FLOPS:      4.020e+10
        SOLVER ELAPSED TIME:  297ms

               CONVERGENCE CHECKS FOR EQUILIBRIUM ITERATION     2


 AVERAGE FORCE                       1.31       TIME AVG. FORCE        1.14    
 LARGEST SCALED RESIDUAL FORCE      6.778E-03   AT NODE      11040   DOF  2
   INSTANCE: SH115                                                                           
  CORRESPONDING RESIDUAL FORCE      6.778E-03
 LARGEST INCREMENT OF DISP.         3.164E-07   AT NODE       7986   DOF  2
   INSTANCE: SH115                                                                           
 LARGEST CORRECTION TO DISP.       -5.368E-10   AT NODE      11328   DOF  2
   INSTANCE: SH115                                                                           
          FORCE     EQUILIBRIUM NOT ACHIEVED WITHIN TOLERANCE.
 
	SYMMETRIC NEW DIRECT SPARSE SOLVER RUNNING ON
 	1 HOST x 1 MPI RANK PER HOST x 8 THREADS PER RANK
        NUMBER OF EQUATIONS:  129474
        NUMBER OF RHS:        1
        NUMBER OF FLOPS:      4.020e+10
        SOLVER ELAPSED TIME:  278ms

               CONVERGENCE CHECKS FOR EQUILIBRIUM ITERATION     3


 AVERAGE FORCE                       1.31       TIME AVG. FORCE        1.14    
 LARGEST SCALED RESIDUAL FORCE     -9.162E-03   AT NODE      31553   DOF  2
   INSTANCE: SH115                                                                           
  CORRESPONDING RESIDUAL FORCE     -9.162E-03
 LARGEST INCREMENT OF DISP.         3.164E-07   AT NODE       7986   DOF  2
   INSTANCE: SH115                                                                           
 LARGEST CORRECTION TO DISP.       -3.806E-10   AT NODE      11328   DOF  1
   INSTANCE: SH115                                                                           
          FORCE     EQUILIBRIUM NOT ACHIEVED WITHIN TOLERANCE.
 
	SYMMETRIC NEW DIRECT SPARSE SOLVER RUNNING ON
 	1 HOST x 1 MPI RANK PER HOST x 8 THREADS PER RANK
        NUMBER OF EQUATIONS:  129474
        NUMBER OF RHS:        1
        NUMBER OF FLOPS:      4.020e+10
        SOLVER ELAPSED TIME:  292ms

               CONVERGENCE CHECKS FOR EQUILIBRIUM ITERATION     4


 AVERAGE FORCE                       1.31       TIME AVG. FORCE        1.14    
 LARGEST SCALED RESIDUAL FORCE     -6.615E-03   AT NODE      11040   DOF  2
   INSTANCE: SH115                                                                           
  CORRESPONDING RESIDUAL FORCE     -6.615E-03
 LARGEST INCREMENT OF DISP.         3.164E-07   AT NODE       7986   DOF  2
   INSTANCE: SH115                                                                           
 LARGEST CORRECTION TO DISP.       -3.379E-10   AT NODE        919   DOF  2
   INSTANCE: SH115                                                                           
          FORCE     EQUILIBRIUM NOT ACHIEVED WITHIN TOLERANCE.
 
	SYMMETRIC NEW DIRECT SPARSE SOLVER RUNNING ON
 	1 HOST x 1 MPI RANK PER HOST x 8 THREADS PER RANK
        NUMBER OF EQUATIONS:  129474
        NUMBER OF RHS:        1
        NUMBER OF FLOPS:      4.020e+10
        SOLVER ELAPSED TIME:  300ms

               CONVERGENCE CHECKS FOR EQUILIBRIUM ITERATION     5


 AVERAGE FORCE                       1.31       TIME AVG. FORCE        1.14    
 LARGEST SCALED RESIDUAL FORCE      4.462E-03   AT NODE      31553   DOF  2
   INSTANCE: SH115                                                                           
  CORRESPONDING RESIDUAL FORCE      4.462E-03
 LARGEST INCREMENT OF DISP.         3.164E-07   AT NODE       7986   DOF  2
   INSTANCE: SH115                                                                           
 LARGEST CORRECTION TO DISP.       -2.327E-10   AT NODE        919   DOF  2
   INSTANCE: SH115                                                                           
          THE FORCE     EQUILIBRIUM EQUATIONS HAVE CONVERGED

 ITERATION SUMMARY FOR THE INCREMENT:   5 TOTAL ITERATIONS, OF WHICH
   0 ARE SEVERE DISCONTINUITY ITERATIONS AND  5 ARE EQUILIBRIUM ITERATIONS.

 TIME INCREMENT COMPLETED  0.149    ,  FRACTION OF STEP COMPLETED  0.367    
 STEP TIME COMPLETED        367.    ,  TOTAL TIME COMPLETED         367.    


  INCREMENT   150 STARTS. ATTEMPT NUMBER  1, TIME INCREMENT  0.149    
 
	SYMMETRIC NEW DIRECT SPARSE SOLVER RUNNING ON
 	1 HOST x 1 MPI RANK PER HOST x 8 THREADS PER RANK
        NUMBER OF EQUATIONS:  129474
        NUMBER OF RHS:        1
        NUMBER OF FLOPS:      4.020e+10
        SOLVER ELAPSED TIME:  296ms

               CONVERGENCE CHECKS FOR EQUILIBRIUM ITERATION     1


 AVERAGE FORCE                       1.31       TIME AVG. FORCE        1.14    
 LARGEST SCALED RESIDUAL FORCE     -7.661E-03   AT NODE      31011   DOF  2
   INSTANCE: SH115                                                                           
  CORRESPONDING RESIDUAL FORCE     -7.661E-03
 LARGEST INCREMENT OF DISP.         3.163E-07   AT NODE       7986   DOF  2
   INSTANCE: SH115                                                                           
 LARGEST CORRECTION TO DISP.       -5.078E-10   AT NODE       1026   DOF  2
   INSTANCE: SH115                                                                           
          FORCE     EQUILIBRIUM NOT ACHIEVED WITHIN TOLERANCE.
 
	SYMMETRIC NEW DIRECT SPARSE SOLVER RUNNING ON
 	1 HOST x 1 MPI RANK PER HOST x 8 THREADS PER RANK
        NUMBER OF EQUATIONS:  129474
        NUMBER OF RHS:        1
        NUMBER OF FLOPS:      4.020e+10
        SOLVER ELAPSED TIME:  307ms

               CONVERGENCE CHECKS FOR EQUILIBRIUM ITERATION     2


 AVERAGE FORCE                       1.31       TIME AVG. FORCE        1.14    
 LARGEST SCALED RESIDUAL FORCE     -4.151E-03   AT NODE      27245   DOF  2
   INSTANCE: SH115                                                                           
  CORRESPONDING RESIDUAL FORCE     -4.151E-03
 LARGEST INCREMENT OF DISP.         3.162E-07   AT NODE       7986   DOF  2
   INSTANCE: SH115                                                                           
 LARGEST CORRECTION TO DISP.        3.083E-10   AT NODE        919   DOF  1
   INSTANCE: SH115                                                                           
          THE FORCE     EQUILIBRIUM EQUATIONS HAVE CONVERGED

 ITERATION SUMMARY FOR THE INCREMENT:   2 TOTAL ITERATIONS, OF WHICH
   0 ARE SEVERE DISCONTINUITY ITERATIONS AND  2 ARE EQUILIBRIUM ITERATIONS.

 TIME INCREMENT COMPLETED  0.149    ,  FRACTION OF STEP COMPLETED  0.367    
 STEP TIME COMPLETED        367.    ,  TOTAL TIME COMPLETED         367.    


  INCREMENT   151 STARTS. ATTEMPT NUMBER  1, TIME INCREMENT  0.149    
 
	SYMMETRIC NEW DIRECT SPARSE SOLVER RUNNING ON
 	1 HOST x 1 MPI RANK PER HOST x 8 THREADS PER RANK
        NUMBER OF EQUATIONS:  129474
        NUMBER OF RHS:        1
        NUMBER OF FLOPS:      4.020e+10
        SOLVER ELAPSED TIME:  4ms

 ***ERROR: Unable to access the new solver solution.



     ANALYSIS SUMMARY:
     TOTAL OF        151  INCREMENTS
                      10  CUTBACKS IN AUTOMATIC INCREMENTATION
                     638  ITERATIONS INCLUDING CONTACT ITERATIONS IF PRESENT
                     637  PASSES THROUGH THE EQUATION SOLVER OF WHICH 
                     638  INVOLVE MATRIX DECOMPOSITION, INCLUDING
                       0  DECOMPOSITION(S) OF THE MASS MATRIX
                       1  REORDERING OF EQUATIONS TO MINIMIZE WAVEFRONT
                       0  ADDITIONAL RESIDUAL EVALUATIONS FOR LINE SEARCHES
                       0  ADDITIONAL OPERATOR EVALUATIONS FOR LINE SEARCHES
                       4  WARNING MESSAGES DURING USER INPUT PROCESSING
                       3  WARNING MESSAGES DURING ANALYSIS
                       0  ANALYSIS WARNINGS ARE NUMERICAL PROBLEM MESSAGES
                       0  ANALYSIS WARNINGS ARE NEGATIVE EIGENVALUE MESSAGES
                       1  ERROR MESSAGES



     JOB TIME SUMMARY
       USER TIME (SEC)      =     5.94E+03
       SYSTEM TIME (SEC)    =      67.    
       TOTAL CPU TIME (SEC) =     6.00E+03
       WALLCLOCK TIME (SEC) =         1085
       MEMORY PEAK (GB)     =            0
