 Abaqus/Standard 2023.HF4                  DATE 21-Oct-2024 TIME 15:19:11
 SUMMARY OF JOB INFORMATION:
 STEP  INC ATT SEVERE EQUIL TOTAL  TOTAL      STEP       INC OF       DOF    IF
               DISCON ITERS ITERS  TIME/    TIME/LPF    TIME/LPF    MONITOR RIKS
               ITERS               FREQ
   1     1   1     0     2     2  5.00       5.00       5.000     
   1     2   1     0     1     1  10.0       10.0       5.000     
   1     3   1     0     1     1  15.0       15.0       5.000     
   1     4   1     0     1     1  20.0       20.0       5.000     
   1     5   1     0     1     1  25.0       25.0       5.000     
   1     6   1     0     1     1  30.0       30.0       5.000     
   1     7   1     0     1     1  35.0       35.0       5.000     
   1     8   1     0     2     2  40.0       40.0       5.000     
   1     9   1     0     2     2  45.0       45.0       5.000     
   1    10   1     0     3     3  50.0       50.0       5.000     
   1    11   1     0     3     3  55.0       55.0       5.000     
   1    12   1     0     3     3  60.0       60.0       5.000     
   1    13   1     0     3     3  65.0       65.0       5.000     
   1    14   1     0     2     2  70.0       70.0       5.000     
   1    15   1     0     2     2  75.0       75.0       5.000     
   1    16   1     0     2     2  80.0       80.0       5.000     
   1    17   1     0     2     2  85.0       85.0       5.000     
   1    18   1     0     3     3  90.0       90.0       5.000     
   1    19   1     0     2     2  95.0       95.0       5.000     
   1    20   1     0     2     2  100.       100.       5.000     
   1    21   1     0     2     2  105.       105.       5.000     
   1    22   1     0     2     2  110.       110.       5.000     
   1    23   1     0     2     2  115.       115.       5.000     
   1    24   1     0     2     2  120.       120.       5.000     
   1    25   1     0     3     3  125.       125.       5.000     
   1    26   1     0     4     4  130.       130.       5.000     
   1    27   1     0     3     3  135.       135.       5.000     
   1    28   1     0     4     4  140.       140.       5.000     
   1    29   1     0     3     3  145.       145.       5.000     
   1    30   1     0     3     3  150.       150.       5.000     
   1    31   1     0     3     3  155.       155.       5.000     
   1    32   1     0     3     3  160.       160.       5.000     
   1    33   1     0     3     3  165.       165.       5.000     
   1    34   1     0     3     3  170.       170.       5.000     
   1    35   1     0     3     3  175.       175.       5.000     
   1    36   1     0     3     3  180.       180.       5.000     
   1    37   1     0     3     3  185.       185.       5.000     
   1    38   1     0     3     3  190.       190.       5.000     
   1    39   1     0     3     3  195.       195.       5.000     
   1    40   1     0     3     3  200.       200.       5.000     
   1    41   1     0     3     3  205.       205.       5.000     
   1    42   1     0     4     4  210.       210.       5.000     
   1    43   1     0     3     3  215.       215.       5.000     
   1    44   1     0     3     3  220.       220.       5.000     
   1    45   1     0     3     3  225.       225.       5.000     
   1    46   1     0     4     4  230.       230.       5.000     
   1    47   1     0     4     4  235.       235.       5.000     
   1    48   1     0     4     4  240.       240.       5.000     
   1    49   1     0     4     4  245.       245.       5.000     
   1    50   1     0     4     4  250.       250.       5.000     
   1    51   1     0     4     4  255.       255.       5.000     
   1    52   1     0     4     4  260.       260.       5.000     
   1    53   1     0     5     5  265.       265.       5.000     
   1    54   1     0     5     5  270.       270.       5.000     
   1    55   1     0     5     5  275.       275.       5.000     
   1    56   1     0     5     5  280.       280.       5.000     
   1    57   1     0     5     5  285.       285.       5.000     
   1    58   1     0     5     5  290.       290.       5.000     
   1    59   1     0     5     5  295.       295.       5.000     
   1    60   1     0     6     6  300.       300.       5.000     
   1    61   1     0     6     6  305.       305.       5.000     
   1    62   1     0     6     6  310.       310.       5.000     
   1    63   1     0     7     7  315.       315.       5.000     
   1    64   1     0     8     8  320.       320.       5.000     
   1    65   1     0     9     9  325.       325.       5.000     
   1    66   1     0    10    10  330.       330.       5.000     
   1    67   1     0    10    10  335.       335.       5.000     
   1    68   1     0    10    10  340.       340.       5.000     
   1    69   1U    0     8     8  340.       340.       5.000     
   1    69   2     0    13    13  341.       341.       1.250     
   1    70   1U    0     4     4  341.       341.       0.9375    
   1    70   2     0     5     5  341.       341.       0.2344    
   1    71   1     0     2     2  342.       342.       0.2344    
   1    72   1     0     1     1  342.       342.       0.2344    
   1    73   1     0     3     3  342.       342.       0.3516    
   1    74   1     0     3     3  343.       343.       0.5273    
   1    75   1     0     5     5  344.       344.       0.7910    
   1    76   1     0     5     5  344.       344.       0.7910    
   1    77   1     0     5     5  345.       345.       0.7910    
   1    78   1     0     5     5  346.       346.       0.7910    
   1    79   1     0     6     6  347.       347.       0.7910    
   1    80   1     0     6     6  348.       348.       0.7910    
   1    81   1     0     6     6  348.       348.       0.7910    
   1    82   1     0     6     6  349.       349.       0.7910    
   1    83   1     0     6     6  350.       350.       0.8398    
   1    84   1     0     6     6  351.       351.       0.8398    
   1    85   1     0     6     6  352.       352.       0.8398    
   1    86   1     0     7     7  353.       353.       0.8398    
   1    87   1     0     7     7  353.       353.       0.8398    
   1    88   1     0     7     7  354.       354.       0.8398    
   1    89   1     0     7     7  355.       355.       0.8398    
   1    90   1U    0     8     8  355.       355.       0.8398    
   1    90   2     0     6     6  355.       355.       0.2100    
   1    91   1     0     2     2  355.       355.       0.2100    
   1    92   1     0     2     2  356.       356.       0.2100    
   1    93   1     0     3     3  356.       356.       0.3149    
   1    94   1     0     6     6  356.       356.       0.4724    
   1    95   1     0     5     5  357.       357.       0.4724    
   1    96   1U    0     4     4  357.       357.       0.4724    
   1    96   2     0     2     2  357.       357.       0.1181    
   1    97   1     0     3     3  357.       357.       0.1181    
   1    98   1     0     2     2  357.       357.       0.1772    
   1    99   1     0     4     4  358.       358.       0.2657    
   1   100   1     0     5     5  358.       358.       0.3986    
   1   101   1     0     5     5  358.       358.       0.3986    
   1   102   1U    0     4     4  358.       358.       0.3986    
   1   102   2     0     2     2  359.       359.       0.09965   
   1   103   1     0     3     3  359.       359.       0.09965   
   1   104   1     0     2     2  359.       359.       0.1495    
   1   105   1     0     4     4  359.       359.       0.2242    
   1   106   1     0     5     5  359.       359.       0.3363    
   1   107   1     0     5     5  360.       360.       0.3363    
   1   108   1U    0     4     4  360.       360.       0.3494    
   1   108   2     0     2     2  360.       360.       0.08735   
   1   109   1     0     3     3  360.       360.       0.08735   
   1   110   1     0     4     4  360.       360.       0.1310    
   1   111   1     0     1     1  360.       360.       0.04367   
   1   112   1     0     6     6  360.       360.       0.2948    
   1   113   1     0     3     3  361.       361.       0.2948    
   1   114   1     0     3     3  361.       361.       0.2948    
   1   115   1     0     7     7  361.       361.       0.4422    
   1   116   1     0     6     6  362.       362.       0.4422    
   1   117   1U    0     4     4  362.       362.       0.4422    
   1   117   2     0     1     1  362.       362.       0.1105    
   1   118   1     0     3     3  362.       362.       0.1105    
   1   119   1     0     2     2  362.       362.       0.1658    
   1   120   1     0     2     2  362.       362.       0.2487    
   1   121   1     0     5     5  363.       363.       0.3731    
   1   122   1     0     5     5  363.       363.       0.3731    
   1   123   1U    0     4     4  363.       363.       0.3731    
   1   123   2     0     2     2  363.       363.       0.09327   
   1   124   1     0     7     7  363.       363.       0.09327   
   1   125   1     0     2     2  363.       363.       0.09327   
   1   126   1     0     5     5  364.       364.       0.09327   
   1   127   1     0     1     1  364.       364.       0.09327   
   1   128   1     0     5     5  364.       364.       0.09327   
   1   129   1     0     2     2  364.       364.       0.09327   
   1   130   1     0     4     4  364.       364.       0.09327   
   1   131   1     0     2     2  364.       364.       0.1399    
   1   132   1     0     6     6  364.       364.       0.2099    
   1   133   1     0     5     5  364.       364.       0.2099    
   1   134   1     0     5     5  365.       365.       0.2099    
   1   135   1U    0     4     4  365.       365.       0.2099    
   1   135   2     0     1     1  365.       365.       0.05247   
   1   136   1     0     3     3  365.       365.       0.05247   
   1   137   1     0     2     2  365.       365.       0.07870   
   1   138   1     0     6     6  365.       365.       0.1181    
   1   139   1     0     5     5  365.       365.       0.1181    
   1   140   1     0     4     4  365.       365.       0.1181    
   1   141   1     0     3     3  365.       365.       0.1181    
   1   142   1     0     4     4  365.       365.       0.1771    
   1   143   1     0     5     5  366.       366.       0.2656    
   1   144   1     0     5     5  366.       366.       0.2656    
   1   145   1U    0     4     4  366.       366.       0.2656    
   1   145   2     0     2     2  366.       366.       0.06640   
   1   146   1     0     4     4  366.       366.       0.06640   
   1   147   1     0     3     3  366.       366.       0.09960   
   1   148   1     0     5     5  366.       366.       0.1494    
   1   149   1     0     5     5  367.       367.       0.1494    
   1   150   1     0     2     2  367.       367.       0.1494    
                          
 THE ANALYSIS HAS NOT BEEN COMPLETED
