1

   Abaqus 2023.HF4                                  Date 09-Jun-2024   Time 16:54:56
   For use by AALTO UNIVERSITY under license from Dassault Systemes or its subsidiary.

                                                                                 
                                                                                 
 STEP    1     INCREMENT     1     STEP TIME    0.00    


                        S T E P       1     S T A T I C   A N A L Y S I S


                                                                                          

     AUTOMATIC TIME CONTROL WITH -
          A SUGGESTED INITIAL TIME INCREMENT OF                 10.0    
          AND A TOTAL TIME PERIOD OF                           1.000E+03
          THE MINIMUM TIME INCREMENT ALLOWED IS                1.000E-05
          THE MAXIMUM TIME INCREMENT ALLOWED IS                 10.0    

     LINEAR EQUATION SOLVER TYPE         DIRECT SPARSE

 CONVERGENCE TOLERANCE PARAMETERS FOR FORCE    
     CRITERION FOR RESIDUAL FORCE     FOR A NONLINEAR PROBLEM          5.000E-03
     CRITERION FOR DISP.    CORRECTION IN A NONLINEAR PROBLEM          1.000E-02
     INITIAL VALUE OF TIME AVERAGE FORCE                               1.000E-02
     AVERAGE FORCE     IS TIME AVERAGE FORCE    
     ALTERNATE CRIT. FOR RESIDUAL FORCE     FOR A NONLINEAR PROBLEM    2.000E-02
     CRITERION FOR ZERO FORCE     RELATIVE TO TIME AVRG. FORCE         1.000E-05
     CRITERION FOR RESIDUAL FORCE     WHEN THERE IS ZERO FLUX          1.000E-05
     CRITERION FOR DISP.    CORRECTION WHEN THERE IS ZERO FLUX         1.000E-03
     CRITERION FOR RESIDUAL FORCE     FOR A LINEAR INCREMENT           1.000E-08
     FIELD CONVERSION RATIO                                             1.00    
     CRITERION FOR ZERO FORCE     REL. TO TIME AVRG. MAX. FORCE        1.000E-05
     CRITERION FOR ZERO DISP.    RELATIVE TO CHARACTERISTIC LENGTH     1.000E-08

     VOLUMETRIC STRAIN COMPATIBILITY TOLERANCE FOR HYBRID SOLIDS       1.000E-05
     AXIAL STRAIN COMPATIBILITY TOLERANCE FOR HYBRID BEAMS             1.000E-05
     TRANS. SHEAR STRAIN COMPATIBILITY TOLERANCE FOR HYBRID BEAMS      1.000E-05
     SOFT CONTACT CONSTRAINT COMPATIBILITY TOLERANCE FOR P>P0          5.000E-03
     SOFT CONTACT CONSTRAINT COMPATIBILITY TOLERANCE FOR P=0.0         0.100    
     CONTACT FORCE ERROR TOLERANCE FOR CONVERT SDI=YES                 1.00    
     DISPLACEMENT COMPATIBILITY TOLERANCE FOR DCOUP ELEMENTS           1.000E-05
     ROTATION COMPATIBILITY TOLERANCE FOR DCOUP ELEMENTS               1.000E-05

 EQUILIBRIUM WILL BE CHECKED FOR SEVERE DISCONTINUITY ITERATIONS

 TIME INCREMENTATION CONTROL PARAMETERS:
     FIRST EQUILIBRIUM ITERATION FOR CONSECUTIVE DIVERGENCE CHECK              4
     EQUILIBRIUM ITERATION AT WHICH LOG. CONVERGENCE RATE CHECK BEGINS         8
     EQUILIBRIUM ITERATION AFTER WHICH ALTERNATE RESIDUAL IS USED              9
     MAXIMUM EQUILIBRIUM ITERATIONS ALLOWED                                   16
     EQUILIBRIUM ITERATION COUNT FOR CUT-BACK IN NEXT INCREMENT               10
     MAXIMUM EQUILIB. ITERS IN TWO INCREMENTS FOR TIME INCREMENT INCREASE      4
     MAXIMUM ITERATIONS FOR SEVERE DISCONTINUITIES                            50
     MAXIMUM ATTEMPTS ALLOWED IN AN INCREMENT                                  5
     MAXIMUM DISCON. ITERS IN TWO INCREMENTS FOR TIME INCREMENT INCREASE      50
     MAXIMUM CONTACT AUGMENTATIONS FOR *SURFACE BEHAVIOR,AUGMENTED LAGRANGE   50
     CUT-BACK FACTOR AFTER DIVERGENCE                                 0.2500    
     CUT-BACK FACTOR FOR TOO SLOW CONVERGENCE                         0.5000    
     CUT-BACK FACTOR AFTER TOO MANY EQUILIBRIUM ITERATIONS            0.7500    
     CUT-BACK FACTOR AFTER TOO MANY SEVERE DISCONTINUITY ITERATIONS   0.2500    
     CUT-BACK FACTOR AFTER PROBLEMS IN ELEMENT ASSEMBLY               0.2500    
     INCREASE FACTOR AFTER TWO INCREMENTS THAT CONVERGE QUICKLY        1.500    
     MAX. TIME INCREMENT INCREASE FACTOR ALLOWED                       1.500    
     MAX. TIME INCREMENT INCREASE FACTOR ALLOWED (DYNAMICS)            1.250    
     MAX. TIME INCREMENT INCREASE FACTOR ALLOWED (DIFFUSION)           2.000    
     MINIMUM TIME INCREMENT RATIO FOR EXTRAPOLATION TO OCCUR          0.1000    
     MAX. RATIO OF TIME INCREMENT TO STABILITY LIMIT                   1.000    
     FRACTION OF STABILITY LIMIT FOR NEW TIME INCREMENT               0.9500    
     TIME INCREMENT INCREASE FACTOR BEFORE A TIME POINT                1.000    
     GLOBAL STABILIZATION CONTROL IS NOT USED

          PRINT OF INCREMENT NUMBER, TIME, ETC., EVERY    1  INCREMENTS

     THE MAXIMUM NUMBER OF INCREMENTS IN THIS STEP IS                  100000

          LARGE DISPLACEMENT THEORY WILL BE USED

     LINEAR EXTRAPOLATION WILL BE USED

     CHARACTERISTIC ELEMENT LENGTH     1.943E-04

     DETAILS REGARDING ACTUAL SOLUTION WAVEFRONT REQUESTED

     DETAILED OUTPUT OF DIAGNOSTICS TO DATABASE REQUESTED

     PRINT OF INCREMENT NUMBER, TIME, ETC., TO THE MESSAGE FILE EVERY     1  INCREMENTS

     ELEMENT OPERATIONS WILL BE CARRIED OUT IN PARALLEL USING   8 THREADS ON 1 DOMAIN

     PARALLEL CONTACT TRACKING ENABLED


     COLLECTING MODEL CONSTRAINT INFORMATION FOR OVERCONSTRAINT CHECKS

     COLLECTING STEP CONSTRAINT INFORMATION FOR OVERCONSTRAINT CHECKS


  INCREMENT     1 STARTS. ATTEMPT NUMBER  1, TIME INCREMENT   10.0    
 
     INITIAL ELEMENT LOAD BALANCE
            DOMAIN    1     THREAD    NUMBER OF ELEMENTS
                              1            3880
                              2            4136
                              3            4592
                              4            4496
                              5            4472
                              6            4008
                              7            4080
                              8            4799
 
	SYMMETRIC NEW DIRECT SPARSE SOLVER RUNNING ON
 	1 HOST x 1 MPI RANK PER HOST x 8 THREADS PER RANK
        NUMBER OF EQUATIONS:  128871
        NUMBER OF RHS:        1
        NUMBER OF FLOPS:      4.927e+10
        SOLVER ELAPSED TIME:  321ms

               CONVERGENCE CHECKS FOR EQUILIBRIUM ITERATION     1


 AVERAGE FORCE                      7.712E-02   TIME AVG. FORCE       7.712E-02
 LARGEST SCALED RESIDUAL FORCE      2.323E-03   AT NODE       2632   DOF  3
   INSTANCE: CHD2-M-1                                                                        
  CORRESPONDING RESIDUAL FORCE      2.323E-03
 LARGEST INCREMENT OF DISP.         1.900E-05   AT NODE       1838   DOF  2
   INSTANCE: CHD2-M-1                                                                        
 LARGEST CORRECTION TO DISP.        1.900E-05   AT NODE       1838   DOF  2
   INSTANCE: CHD2-M-1                                                                        
          FORCE     EQUILIBRIUM NOT ACHIEVED WITHIN TOLERANCE.
 
	SYMMETRIC NEW DIRECT SPARSE SOLVER RUNNING ON
 	1 HOST x 1 MPI RANK PER HOST x 8 THREADS PER RANK
        NUMBER OF EQUATIONS:  128871
        NUMBER OF RHS:        1
        NUMBER OF FLOPS:      4.927e+10
        SOLVER ELAPSED TIME:  322ms

               CONVERGENCE CHECKS FOR EQUILIBRIUM ITERATION     2


 AVERAGE FORCE                      7.712E-02   TIME AVG. FORCE       7.712E-02
 LARGEST SCALED RESIDUAL FORCE     -3.773E-08   AT NODE       1930   DOF  2
   INSTANCE: CHD2-M-1                                                                        
  CORRESPONDING RESIDUAL FORCE     -3.773E-08
 LARGEST INCREMENT OF DISP.         1.900E-05   AT NODE       1838   DOF  2
   INSTANCE: CHD2-M-1                                                                        
 LARGEST CORRECTION TO DISP.        1.112E-10   AT NODE       1982   DOF  2
   INSTANCE: CHD2-M-1                                                                        
          THE FORCE     EQUILIBRIUM EQUATIONS HAVE CONVERGED

 ITERATION SUMMARY FOR THE INCREMENT:   2 TOTAL ITERATIONS, OF WHICH
   0 ARE SEVERE DISCONTINUITY ITERATIONS AND  2 ARE EQUILIBRIUM ITERATIONS.

 TIME INCREMENT COMPLETED   10.0    ,  FRACTION OF STEP COMPLETED  1.000E-02
 STEP TIME COMPLETED        10.0    ,  TOTAL TIME COMPLETED         10.0    


  INCREMENT     2 STARTS. ATTEMPT NUMBER  1, TIME INCREMENT   10.0    
 
	SYMMETRIC NEW DIRECT SPARSE SOLVER RUNNING ON
 	1 HOST x 1 MPI RANK PER HOST x 8 THREADS PER RANK
        NUMBER OF EQUATIONS:  128871
        NUMBER OF RHS:        1
        NUMBER OF FLOPS:      4.927e+10
        SOLVER ELAPSED TIME:  310ms

               CONVERGENCE CHECKS FOR EQUILIBRIUM ITERATION     1


 AVERAGE FORCE                      0.196       TIME AVG. FORCE       0.137    
 LARGEST SCALED RESIDUAL FORCE     -8.677E-08   AT NODE       2346   DOF  2
   INSTANCE: CHD2-M-1                                                                        
  CORRESPONDING RESIDUAL FORCE     -8.677E-08
 LARGEST INCREMENT OF DISP.         1.900E-05   AT NODE       1838   DOF  2
   INSTANCE: CHD2-M-1                                                                        
 LARGEST CORRECTION TO DISP.        2.117E-10   AT NODE       1982   DOF  2
   INSTANCE: CHD2-M-1                                                                        
          THE FORCE     EQUILIBRIUM EQUATIONS HAVE CONVERGED

 ITERATION SUMMARY FOR THE INCREMENT:   1 TOTAL ITERATIONS, OF WHICH
   0 ARE SEVERE DISCONTINUITY ITERATIONS AND  1 ARE EQUILIBRIUM ITERATIONS.

 TIME INCREMENT COMPLETED   10.0    ,  FRACTION OF STEP COMPLETED  2.000E-02
 STEP TIME COMPLETED        20.0    ,  TOTAL TIME COMPLETED         20.0    


  INCREMENT     3 STARTS. ATTEMPT NUMBER  1, TIME INCREMENT   10.0    
 
	SYMMETRIC NEW DIRECT SPARSE SOLVER RUNNING ON
 	1 HOST x 1 MPI RANK PER HOST x 8 THREADS PER RANK
        NUMBER OF EQUATIONS:  128871
        NUMBER OF RHS:        1
        NUMBER OF FLOPS:      4.927e+10
        SOLVER ELAPSED TIME:  323ms

               CONVERGENCE CHECKS FOR EQUILIBRIUM ITERATION     1


 AVERAGE FORCE                      0.294       TIME AVG. FORCE       0.189    
 LARGEST SCALED RESIDUAL FORCE     -1.543E-07   AT NODE       2346   DOF  2
   INSTANCE: CHD2-M-1                                                                        
  CORRESPONDING RESIDUAL FORCE     -1.543E-07
 LARGEST INCREMENT OF DISP.         1.900E-05   AT NODE       1838   DOF  2
   INSTANCE: CHD2-M-1                                                                        
 LARGEST CORRECTION TO DISP.        2.116E-10   AT NODE       1982   DOF  2
   INSTANCE: CHD2-M-1                                                                        
          THE FORCE     EQUILIBRIUM EQUATIONS HAVE CONVERGED

 ITERATION SUMMARY FOR THE INCREMENT:   1 TOTAL ITERATIONS, OF WHICH
   0 ARE SEVERE DISCONTINUITY ITERATIONS AND  1 ARE EQUILIBRIUM ITERATIONS.

 TIME INCREMENT COMPLETED   10.0    ,  FRACTION OF STEP COMPLETED  3.000E-02
 STEP TIME COMPLETED        30.0    ,  TOTAL TIME COMPLETED         30.0    


  INCREMENT     4 STARTS. ATTEMPT NUMBER  1, TIME INCREMENT   10.0    
 
	SYMMETRIC NEW DIRECT SPARSE SOLVER RUNNING ON
 	1 HOST x 1 MPI RANK PER HOST x 8 THREADS PER RANK
        NUMBER OF EQUATIONS:  128871
        NUMBER OF RHS:        1
        NUMBER OF FLOPS:      4.927e+10
        SOLVER ELAPSED TIME:  320ms

               CONVERGENCE CHECKS FOR EQUILIBRIUM ITERATION     1


 AVERAGE FORCE                      0.392       TIME AVG. FORCE       0.240    
 LARGEST SCALED RESIDUAL FORCE     -2.218E-07   AT NODE       2346   DOF  2
   INSTANCE: CHD2-M-1                                                                        
  CORRESPONDING RESIDUAL FORCE     -2.218E-07
 LARGEST INCREMENT OF DISP.         1.900E-05   AT NODE       1838   DOF  2
   INSTANCE: CHD2-M-1                                                                        
 LARGEST CORRECTION TO DISP.        2.116E-10   AT NODE       1982   DOF  2
   INSTANCE: CHD2-M-1                                                                        
          THE FORCE     EQUILIBRIUM EQUATIONS HAVE CONVERGED

 ITERATION SUMMARY FOR THE INCREMENT:   1 TOTAL ITERATIONS, OF WHICH
   0 ARE SEVERE DISCONTINUITY ITERATIONS AND  1 ARE EQUILIBRIUM ITERATIONS.

 TIME INCREMENT COMPLETED   10.0    ,  FRACTION OF STEP COMPLETED  4.000E-02
 STEP TIME COMPLETED        40.0    ,  TOTAL TIME COMPLETED         40.0    


  INCREMENT     5 STARTS. ATTEMPT NUMBER  1, TIME INCREMENT   10.0    
 
	SYMMETRIC NEW DIRECT SPARSE SOLVER RUNNING ON
 	1 HOST x 1 MPI RANK PER HOST x 8 THREADS PER RANK
        NUMBER OF EQUATIONS:  128871
        NUMBER OF RHS:        1
        NUMBER OF FLOPS:      4.927e+10
        SOLVER ELAPSED TIME:  309ms

               CONVERGENCE CHECKS FOR EQUILIBRIUM ITERATION     1


 AVERAGE FORCE                      0.490       TIME AVG. FORCE       0.290    
 LARGEST SCALED RESIDUAL FORCE     -2.893E-07   AT NODE       2346   DOF  2
   INSTANCE: CHD2-M-1                                                                        
  CORRESPONDING RESIDUAL FORCE     -2.893E-07
 LARGEST INCREMENT OF DISP.         1.900E-05   AT NODE       1838   DOF  2
   INSTANCE: CHD2-M-1                                                                        
 LARGEST CORRECTION TO DISP.        2.116E-10   AT NODE       1982   DOF  2
   INSTANCE: CHD2-M-1                                                                        
          THE FORCE     EQUILIBRIUM EQUATIONS HAVE CONVERGED

 ITERATION SUMMARY FOR THE INCREMENT:   1 TOTAL ITERATIONS, OF WHICH
   0 ARE SEVERE DISCONTINUITY ITERATIONS AND  1 ARE EQUILIBRIUM ITERATIONS.

 TIME INCREMENT COMPLETED   10.0    ,  FRACTION OF STEP COMPLETED  5.000E-02
 STEP TIME COMPLETED        50.0    ,  TOTAL TIME COMPLETED         50.0    


  INCREMENT     6 STARTS. ATTEMPT NUMBER  1, TIME INCREMENT   10.0    
 
	SYMMETRIC NEW DIRECT SPARSE SOLVER RUNNING ON
 	1 HOST x 1 MPI RANK PER HOST x 8 THREADS PER RANK
        NUMBER OF EQUATIONS:  128871
        NUMBER OF RHS:        1
        NUMBER OF FLOPS:      4.927e+10
        SOLVER ELAPSED TIME:  507ms

               CONVERGENCE CHECKS FOR EQUILIBRIUM ITERATION     1


 AVERAGE FORCE                      0.588       TIME AVG. FORCE       0.340    
 LARGEST SCALED RESIDUAL FORCE     -3.567E-07   AT NODE       2346   DOF  2
   INSTANCE: CHD2-M-1                                                                        
  CORRESPONDING RESIDUAL FORCE     -3.567E-07
 LARGEST INCREMENT OF DISP.         1.900E-05   AT NODE       1838   DOF  2
   INSTANCE: CHD2-M-1                                                                        
 LARGEST CORRECTION TO DISP.        2.116E-10   AT NODE       1982   DOF  2
   INSTANCE: CHD2-M-1                                                                        
          THE FORCE     EQUILIBRIUM EQUATIONS HAVE CONVERGED

 ITERATION SUMMARY FOR THE INCREMENT:   1 TOTAL ITERATIONS, OF WHICH
   0 ARE SEVERE DISCONTINUITY ITERATIONS AND  1 ARE EQUILIBRIUM ITERATIONS.

 TIME INCREMENT COMPLETED   10.0    ,  FRACTION OF STEP COMPLETED  6.000E-02
 STEP TIME COMPLETED        60.0    ,  TOTAL TIME COMPLETED         60.0    


  INCREMENT     7 STARTS. ATTEMPT NUMBER  1, TIME INCREMENT   10.0    
 
	SYMMETRIC NEW DIRECT SPARSE SOLVER RUNNING ON
 	1 HOST x 1 MPI RANK PER HOST x 8 THREADS PER RANK
        NUMBER OF EQUATIONS:  128871
        NUMBER OF RHS:        1
        NUMBER OF FLOPS:      4.927e+10
        SOLVER ELAPSED TIME:  512ms

               CONVERGENCE CHECKS FOR EQUILIBRIUM ITERATION     1


 AVERAGE FORCE                      0.686       TIME AVG. FORCE       0.389    
 LARGEST SCALED RESIDUAL FORCE     -4.241E-07   AT NODE       2346   DOF  2
   INSTANCE: CHD2-M-1                                                                        
  CORRESPONDING RESIDUAL FORCE     -4.241E-07
 LARGEST INCREMENT OF DISP.         1.900E-05   AT NODE       1838   DOF  2
   INSTANCE: CHD2-M-1                                                                        
 LARGEST CORRECTION TO DISP.        2.115E-10   AT NODE       1982   DOF  2
   INSTANCE: CHD2-M-1                                                                        
          THE FORCE     EQUILIBRIUM EQUATIONS HAVE CONVERGED

 ITERATION SUMMARY FOR THE INCREMENT:   1 TOTAL ITERATIONS, OF WHICH
   0 ARE SEVERE DISCONTINUITY ITERATIONS AND  1 ARE EQUILIBRIUM ITERATIONS.

 TIME INCREMENT COMPLETED   10.0    ,  FRACTION OF STEP COMPLETED  7.000E-02
 STEP TIME COMPLETED        70.0    ,  TOTAL TIME COMPLETED         70.0    


  INCREMENT     8 STARTS. ATTEMPT NUMBER  1, TIME INCREMENT   10.0    
 
	SYMMETRIC NEW DIRECT SPARSE SOLVER RUNNING ON
 	1 HOST x 1 MPI RANK PER HOST x 8 THREADS PER RANK
        NUMBER OF EQUATIONS:  128871
        NUMBER OF RHS:        1
        NUMBER OF FLOPS:      4.927e+10
        SOLVER ELAPSED TIME:  505ms

               CONVERGENCE CHECKS FOR EQUILIBRIUM ITERATION     1


 AVERAGE FORCE                      0.784       TIME AVG. FORCE       0.438    
 LARGEST SCALED RESIDUAL FORCE     -4.915E-07   AT NODE       2346   DOF  2
   INSTANCE: CHD2-M-1                                                                        
  CORRESPONDING RESIDUAL FORCE     -4.915E-07
 LARGEST INCREMENT OF DISP.         1.900E-05   AT NODE       1838   DOF  2
   INSTANCE: CHD2-M-1                                                                        
 LARGEST CORRECTION TO DISP.        2.115E-10   AT NODE       1982   DOF  2
   INSTANCE: CHD2-M-1                                                                        
          THE FORCE     EQUILIBRIUM EQUATIONS HAVE CONVERGED

 ITERATION SUMMARY FOR THE INCREMENT:   1 TOTAL ITERATIONS, OF WHICH
   0 ARE SEVERE DISCONTINUITY ITERATIONS AND  1 ARE EQUILIBRIUM ITERATIONS.

 TIME INCREMENT COMPLETED   10.0    ,  FRACTION OF STEP COMPLETED  8.000E-02
 STEP TIME COMPLETED        80.0    ,  TOTAL TIME COMPLETED         80.0    


  INCREMENT     9 STARTS. ATTEMPT NUMBER  1, TIME INCREMENT   10.0    
 
	SYMMETRIC NEW DIRECT SPARSE SOLVER RUNNING ON
 	1 HOST x 1 MPI RANK PER HOST x 8 THREADS PER RANK
        NUMBER OF EQUATIONS:  128871
        NUMBER OF RHS:        1
        NUMBER OF FLOPS:      4.927e+10
        SOLVER ELAPSED TIME:  505ms

               CONVERGENCE CHECKS FOR EQUILIBRIUM ITERATION     1


 AVERAGE FORCE                      0.882       TIME AVG. FORCE       0.488    
 LARGEST SCALED RESIDUAL FORCE     -5.588E-07   AT NODE       2346   DOF  2
   INSTANCE: CHD2-M-1                                                                        
  CORRESPONDING RESIDUAL FORCE     -5.588E-07
 LARGEST INCREMENT OF DISP.         1.900E-05   AT NODE       1838   DOF  2
   INSTANCE: CHD2-M-1                                                                        
 LARGEST CORRECTION TO DISP.        2.115E-10   AT NODE       1982   DOF  2
   INSTANCE: CHD2-M-1                                                                        
          THE FORCE     EQUILIBRIUM EQUATIONS HAVE CONVERGED

 ITERATION SUMMARY FOR THE INCREMENT:   1 TOTAL ITERATIONS, OF WHICH
   0 ARE SEVERE DISCONTINUITY ITERATIONS AND  1 ARE EQUILIBRIUM ITERATIONS.

 TIME INCREMENT COMPLETED   10.0    ,  FRACTION OF STEP COMPLETED  9.000E-02
 STEP TIME COMPLETED        90.0    ,  TOTAL TIME COMPLETED         90.0    


  INCREMENT    10 STARTS. ATTEMPT NUMBER  1, TIME INCREMENT   10.0    
 
	SYMMETRIC NEW DIRECT SPARSE SOLVER RUNNING ON
 	1 HOST x 1 MPI RANK PER HOST x 8 THREADS PER RANK
        NUMBER OF EQUATIONS:  128871
        NUMBER OF RHS:        1
        NUMBER OF FLOPS:      4.927e+10
        SOLVER ELAPSED TIME:  509ms

               CONVERGENCE CHECKS FOR EQUILIBRIUM ITERATION     1


 AVERAGE FORCE                      0.980       TIME AVG. FORCE       0.537    
 LARGEST SCALED RESIDUAL FORCE     -6.261E-07   AT NODE       2346   DOF  2
   INSTANCE: CHD2-M-1                                                                        
  CORRESPONDING RESIDUAL FORCE     -6.261E-07
 LARGEST INCREMENT OF DISP.         1.900E-05   AT NODE       1838   DOF  2
   INSTANCE: CHD2-M-1                                                                        
 LARGEST CORRECTION TO DISP.        2.115E-10   AT NODE       1982   DOF  2
   INSTANCE: CHD2-M-1                                                                        
          THE FORCE     EQUILIBRIUM EQUATIONS HAVE CONVERGED

 ITERATION SUMMARY FOR THE INCREMENT:   1 TOTAL ITERATIONS, OF WHICH
   0 ARE SEVERE DISCONTINUITY ITERATIONS AND  1 ARE EQUILIBRIUM ITERATIONS.

 TIME INCREMENT COMPLETED   10.0    ,  FRACTION OF STEP COMPLETED  0.100    
 STEP TIME COMPLETED        100.    ,  TOTAL TIME COMPLETED         100.    


  INCREMENT    11 STARTS. ATTEMPT NUMBER  1, TIME INCREMENT   10.0    
 
	SYMMETRIC NEW DIRECT SPARSE SOLVER RUNNING ON
 	1 HOST x 1 MPI RANK PER HOST x 8 THREADS PER RANK
        NUMBER OF EQUATIONS:  128871
        NUMBER OF RHS:        1
        NUMBER OF FLOPS:      4.927e+10
        SOLVER ELAPSED TIME:  517ms

               CONVERGENCE CHECKS FOR EQUILIBRIUM ITERATION     1


 AVERAGE FORCE                       1.08       TIME AVG. FORCE       0.586    
 LARGEST SCALED RESIDUAL FORCE     -6.933E-07   AT NODE       2346   DOF  2
   INSTANCE: CHD2-M-1                                                                        
  CORRESPONDING RESIDUAL FORCE     -6.933E-07
 LARGEST INCREMENT OF DISP.         1.900E-05   AT NODE       1838   DOF  2
   INSTANCE: CHD2-M-1                                                                        
 LARGEST CORRECTION TO DISP.        2.114E-10   AT NODE       1982   DOF  2
   INSTANCE: CHD2-M-1                                                                        
          THE FORCE     EQUILIBRIUM EQUATIONS HAVE CONVERGED

 ITERATION SUMMARY FOR THE INCREMENT:   1 TOTAL ITERATIONS, OF WHICH
   0 ARE SEVERE DISCONTINUITY ITERATIONS AND  1 ARE EQUILIBRIUM ITERATIONS.

 TIME INCREMENT COMPLETED   10.0    ,  FRACTION OF STEP COMPLETED  0.110    
 STEP TIME COMPLETED        110.    ,  TOTAL TIME COMPLETED         110.    


  INCREMENT    12 STARTS. ATTEMPT NUMBER  1, TIME INCREMENT   10.0    
 
	SYMMETRIC NEW DIRECT SPARSE SOLVER RUNNING ON
 	1 HOST x 1 MPI RANK PER HOST x 8 THREADS PER RANK
        NUMBER OF EQUATIONS:  128871
        NUMBER OF RHS:        1
        NUMBER OF FLOPS:      4.927e+10
        SOLVER ELAPSED TIME:  497ms

               CONVERGENCE CHECKS FOR EQUILIBRIUM ITERATION     1


 AVERAGE FORCE                       1.18       TIME AVG. FORCE       0.635    
 LARGEST SCALED RESIDUAL FORCE     -7.605E-07   AT NODE       2346   DOF  2
   INSTANCE: CHD2-M-1                                                                        
  CORRESPONDING RESIDUAL FORCE     -7.605E-07
 LARGEST INCREMENT OF DISP.         1.900E-05   AT NODE       1838   DOF  2
   INSTANCE: CHD2-M-1                                                                        
 LARGEST CORRECTION TO DISP.        2.114E-10   AT NODE       1982   DOF  2
   INSTANCE: CHD2-M-1                                                                        
          THE FORCE     EQUILIBRIUM EQUATIONS HAVE CONVERGED

 ITERATION SUMMARY FOR THE INCREMENT:   1 TOTAL ITERATIONS, OF WHICH
   0 ARE SEVERE DISCONTINUITY ITERATIONS AND  1 ARE EQUILIBRIUM ITERATIONS.

 TIME INCREMENT COMPLETED   10.0    ,  FRACTION OF STEP COMPLETED  0.120    
 STEP TIME COMPLETED        120.    ,  TOTAL TIME COMPLETED         120.    


  INCREMENT    13 STARTS. ATTEMPT NUMBER  1, TIME INCREMENT   10.0    
 
	SYMMETRIC NEW DIRECT SPARSE SOLVER RUNNING ON
 	1 HOST x 1 MPI RANK PER HOST x 8 THREADS PER RANK
        NUMBER OF EQUATIONS:  128871
        NUMBER OF RHS:        1
        NUMBER OF FLOPS:      4.927e+10
        SOLVER ELAPSED TIME:  510ms

               CONVERGENCE CHECKS FOR EQUILIBRIUM ITERATION     1


 AVERAGE FORCE                       1.27       TIME AVG. FORCE       0.684    
 LARGEST SCALED RESIDUAL FORCE     -8.277E-07   AT NODE       2346   DOF  2
   INSTANCE: CHD2-M-1                                                                        
  CORRESPONDING RESIDUAL FORCE     -8.277E-07
 LARGEST INCREMENT OF DISP.         1.900E-05   AT NODE       1838   DOF  2
   INSTANCE: CHD2-M-1                                                                        
 LARGEST CORRECTION TO DISP.        2.114E-10   AT NODE       1982   DOF  2
   INSTANCE: CHD2-M-1                                                                        
          THE FORCE     EQUILIBRIUM EQUATIONS HAVE CONVERGED

 ITERATION SUMMARY FOR THE INCREMENT:   1 TOTAL ITERATIONS, OF WHICH
   0 ARE SEVERE DISCONTINUITY ITERATIONS AND  1 ARE EQUILIBRIUM ITERATIONS.

 TIME INCREMENT COMPLETED   10.0    ,  FRACTION OF STEP COMPLETED  0.130    
 STEP TIME COMPLETED        130.    ,  TOTAL TIME COMPLETED         130.    


  INCREMENT    14 STARTS. ATTEMPT NUMBER  1, TIME INCREMENT   10.0    
 
	SYMMETRIC NEW DIRECT SPARSE SOLVER RUNNING ON
 	1 HOST x 1 MPI RANK PER HOST x 8 THREADS PER RANK
        NUMBER OF EQUATIONS:  128871
        NUMBER OF RHS:        1
        NUMBER OF FLOPS:      4.927e+10
        SOLVER ELAPSED TIME:  510ms

               CONVERGENCE CHECKS FOR EQUILIBRIUM ITERATION     1


 AVERAGE FORCE                       1.37       TIME AVG. FORCE       0.733    
 LARGEST SCALED RESIDUAL FORCE     -8.948E-07   AT NODE       2346   DOF  2
   INSTANCE: CHD2-M-1                                                                        
  CORRESPONDING RESIDUAL FORCE     -8.948E-07
 LARGEST INCREMENT OF DISP.         1.900E-05   AT NODE       1838   DOF  2
   INSTANCE: CHD2-M-1                                                                        
 LARGEST CORRECTION TO DISP.        2.113E-10   AT NODE       1982   DOF  2
   INSTANCE: CHD2-M-1                                                                        
          THE FORCE     EQUILIBRIUM EQUATIONS HAVE CONVERGED

 ITERATION SUMMARY FOR THE INCREMENT:   1 TOTAL ITERATIONS, OF WHICH
   0 ARE SEVERE DISCONTINUITY ITERATIONS AND  1 ARE EQUILIBRIUM ITERATIONS.

 TIME INCREMENT COMPLETED   10.0    ,  FRACTION OF STEP COMPLETED  0.140    
 STEP TIME COMPLETED        140.    ,  TOTAL TIME COMPLETED         140.    


  INCREMENT    15 STARTS. ATTEMPT NUMBER  1, TIME INCREMENT   10.0    
 
	SYMMETRIC NEW DIRECT SPARSE SOLVER RUNNING ON
 	1 HOST x 1 MPI RANK PER HOST x 8 THREADS PER RANK
        NUMBER OF EQUATIONS:  128871
        NUMBER OF RHS:        1
        NUMBER OF FLOPS:      4.927e+10
        SOLVER ELAPSED TIME:  519ms

               CONVERGENCE CHECKS FOR EQUILIBRIUM ITERATION     1


 AVERAGE FORCE                       1.47       TIME AVG. FORCE       0.782    
 LARGEST SCALED RESIDUAL FORCE     -9.619E-07   AT NODE       2346   DOF  2
   INSTANCE: CHD2-M-1                                                                        
  CORRESPONDING RESIDUAL FORCE     -9.619E-07
 LARGEST INCREMENT OF DISP.         1.900E-05   AT NODE       1838   DOF  2
   INSTANCE: CHD2-M-1                                                                        
 LARGEST CORRECTION TO DISP.        2.113E-10   AT NODE       1982   DOF  2
   INSTANCE: CHD2-M-1                                                                        
          THE FORCE     EQUILIBRIUM EQUATIONS HAVE CONVERGED

 ITERATION SUMMARY FOR THE INCREMENT:   1 TOTAL ITERATIONS, OF WHICH
   0 ARE SEVERE DISCONTINUITY ITERATIONS AND  1 ARE EQUILIBRIUM ITERATIONS.

 TIME INCREMENT COMPLETED   10.0    ,  FRACTION OF STEP COMPLETED  0.150    
 STEP TIME COMPLETED        150.    ,  TOTAL TIME COMPLETED         150.    


  INCREMENT    16 STARTS. ATTEMPT NUMBER  1, TIME INCREMENT   10.0    
 
	SYMMETRIC NEW DIRECT SPARSE SOLVER RUNNING ON
 	1 HOST x 1 MPI RANK PER HOST x 8 THREADS PER RANK
        NUMBER OF EQUATIONS:  128871
        NUMBER OF RHS:        1
        NUMBER OF FLOPS:      4.927e+10
        SOLVER ELAPSED TIME:  491ms

               CONVERGENCE CHECKS FOR EQUILIBRIUM ITERATION     1


 AVERAGE FORCE                       1.57       TIME AVG. FORCE       0.831    
 LARGEST SCALED RESIDUAL FORCE     -1.029E-06   AT NODE       2346   DOF  2
   INSTANCE: CHD2-M-1                                                                        
  CORRESPONDING RESIDUAL FORCE     -1.029E-06
 LARGEST INCREMENT OF DISP.         1.900E-05   AT NODE       1838   DOF  2
   INSTANCE: CHD2-M-1                                                                        
 LARGEST CORRECTION TO DISP.        2.113E-10   AT NODE       1982   DOF  2
   INSTANCE: CHD2-M-1                                                                        
          THE FORCE     EQUILIBRIUM EQUATIONS HAVE CONVERGED

 ITERATION SUMMARY FOR THE INCREMENT:   1 TOTAL ITERATIONS, OF WHICH
   0 ARE SEVERE DISCONTINUITY ITERATIONS AND  1 ARE EQUILIBRIUM ITERATIONS.

 TIME INCREMENT COMPLETED   10.0    ,  FRACTION OF STEP COMPLETED  0.160    
 STEP TIME COMPLETED        160.    ,  TOTAL TIME COMPLETED         160.    


  INCREMENT    17 STARTS. ATTEMPT NUMBER  1, TIME INCREMENT   10.0    
 
	SYMMETRIC NEW DIRECT SPARSE SOLVER RUNNING ON
 	1 HOST x 1 MPI RANK PER HOST x 8 THREADS PER RANK
        NUMBER OF EQUATIONS:  128871
        NUMBER OF RHS:        1
        NUMBER OF FLOPS:      4.927e+10
        SOLVER ELAPSED TIME:  516ms

               CONVERGENCE CHECKS FOR EQUILIBRIUM ITERATION     1


 AVERAGE FORCE                       1.66       TIME AVG. FORCE       0.880    
 LARGEST SCALED RESIDUAL FORCE     -1.521E-04   AT NODE       8128   DOF  1
   INSTANCE: CHD2-M-1                                                                        
  CORRESPONDING RESIDUAL FORCE     -1.521E-04
 LARGEST INCREMENT OF DISP.         1.900E-05   AT NODE       1838   DOF  2
   INSTANCE: CHD2-M-1                                                                        
 LARGEST CORRECTION TO DISP.       -7.505E-09   AT NODE       8389   DOF  3
   INSTANCE: CHD2-M-1                                                                        
          THE FORCE     EQUILIBRIUM EQUATIONS HAVE CONVERGED

 ITERATION SUMMARY FOR THE INCREMENT:   1 TOTAL ITERATIONS, OF WHICH
   0 ARE SEVERE DISCONTINUITY ITERATIONS AND  1 ARE EQUILIBRIUM ITERATIONS.

 TIME INCREMENT COMPLETED   10.0    ,  FRACTION OF STEP COMPLETED  0.170    
 STEP TIME COMPLETED        170.    ,  TOTAL TIME COMPLETED         170.    


  INCREMENT    18 STARTS. ATTEMPT NUMBER  1, TIME INCREMENT   10.0    
 
	SYMMETRIC NEW DIRECT SPARSE SOLVER RUNNING ON
 	1 HOST x 1 MPI RANK PER HOST x 8 THREADS PER RANK
        NUMBER OF EQUATIONS:  128871
        NUMBER OF RHS:        1
        NUMBER OF FLOPS:      4.927e+10
        SOLVER ELAPSED TIME:  510ms

               CONVERGENCE CHECKS FOR EQUILIBRIUM ITERATION     1


 AVERAGE FORCE                       1.76       TIME AVG. FORCE       0.929    
 LARGEST SCALED RESIDUAL FORCE     -1.829E-03   AT NODE      31747   DOF  2
   INSTANCE: CHD2-M-1                                                                        
  CORRESPONDING RESIDUAL FORCE     -1.829E-03
 LARGEST INCREMENT OF DISP.         1.900E-05   AT NODE       1838   DOF  2
   INSTANCE: CHD2-M-1                                                                        
 LARGEST CORRECTION TO DISP.       -9.214E-09   AT NODE      25999   DOF  3
   INSTANCE: CHD2-M-1                                                                        
          THE FORCE     EQUILIBRIUM EQUATIONS HAVE CONVERGED

 ITERATION SUMMARY FOR THE INCREMENT:   1 TOTAL ITERATIONS, OF WHICH
   0 ARE SEVERE DISCONTINUITY ITERATIONS AND  1 ARE EQUILIBRIUM ITERATIONS.

 TIME INCREMENT COMPLETED   10.0    ,  FRACTION OF STEP COMPLETED  0.180    
 STEP TIME COMPLETED        180.    ,  TOTAL TIME COMPLETED         180.    


  INCREMENT    19 STARTS. ATTEMPT NUMBER  1, TIME INCREMENT   10.0    
 
	SYMMETRIC NEW DIRECT SPARSE SOLVER RUNNING ON
 	1 HOST x 1 MPI RANK PER HOST x 8 THREADS PER RANK
        NUMBER OF EQUATIONS:  128871
        NUMBER OF RHS:        1
        NUMBER OF FLOPS:      4.927e+10
        SOLVER ELAPSED TIME:  507ms

               CONVERGENCE CHECKS FOR EQUILIBRIUM ITERATION     1


 AVERAGE FORCE                       1.86       TIME AVG. FORCE       0.978    
 LARGEST SCALED RESIDUAL FORCE     -3.196E-03   AT NODE      25222   DOF  2
   INSTANCE: CHD2-M-1                                                                        
  CORRESPONDING RESIDUAL FORCE     -3.196E-03
 LARGEST INCREMENT OF DISP.         1.900E-05   AT NODE       1838   DOF  2
   INSTANCE: CHD2-M-1                                                                        
 LARGEST CORRECTION TO DISP.        9.047E-09   AT NODE       7501   DOF  2
   INSTANCE: CHD2-M-1                                                                        
          THE FORCE     EQUILIBRIUM EQUATIONS HAVE CONVERGED

 ITERATION SUMMARY FOR THE INCREMENT:   1 TOTAL ITERATIONS, OF WHICH
   0 ARE SEVERE DISCONTINUITY ITERATIONS AND  1 ARE EQUILIBRIUM ITERATIONS.

 TIME INCREMENT COMPLETED   10.0    ,  FRACTION OF STEP COMPLETED  0.190    
 STEP TIME COMPLETED        190.    ,  TOTAL TIME COMPLETED         190.    


  INCREMENT    20 STARTS. ATTEMPT NUMBER  1, TIME INCREMENT   10.0    
 
	SYMMETRIC NEW DIRECT SPARSE SOLVER RUNNING ON
 	1 HOST x 1 MPI RANK PER HOST x 8 THREADS PER RANK
        NUMBER OF EQUATIONS:  128871
        NUMBER OF RHS:        1
        NUMBER OF FLOPS:      4.927e+10
        SOLVER ELAPSED TIME:  511ms

               CONVERGENCE CHECKS FOR EQUILIBRIUM ITERATION     1


 AVERAGE FORCE                       1.96       TIME AVG. FORCE        1.03    
 LARGEST SCALED RESIDUAL FORCE     -5.991E-04   AT NODE      25130   DOF  2
   INSTANCE: CHD2-M-1                                                                        
  CORRESPONDING RESIDUAL FORCE     -5.991E-04
 LARGEST INCREMENT OF DISP.         1.900E-05   AT NODE       1838   DOF  2
   INSTANCE: CHD2-M-1                                                                        
 LARGEST CORRECTION TO DISP.        9.193E-09   AT NODE       7538   DOF  2
   INSTANCE: CHD2-M-1                                                                        
          THE FORCE     EQUILIBRIUM EQUATIONS HAVE CONVERGED

 ITERATION SUMMARY FOR THE INCREMENT:   1 TOTAL ITERATIONS, OF WHICH
   0 ARE SEVERE DISCONTINUITY ITERATIONS AND  1 ARE EQUILIBRIUM ITERATIONS.

 TIME INCREMENT COMPLETED   10.0    ,  FRACTION OF STEP COMPLETED  0.200    
 STEP TIME COMPLETED        200.    ,  TOTAL TIME COMPLETED         200.    


  INCREMENT    21 STARTS. ATTEMPT NUMBER  1, TIME INCREMENT   10.0    
 
	SYMMETRIC NEW DIRECT SPARSE SOLVER RUNNING ON
 	1 HOST x 1 MPI RANK PER HOST x 8 THREADS PER RANK
        NUMBER OF EQUATIONS:  128871
        NUMBER OF RHS:        1
        NUMBER OF FLOPS:      4.927e+10
        SOLVER ELAPSED TIME:  505ms

               CONVERGENCE CHECKS FOR EQUILIBRIUM ITERATION     1


 AVERAGE FORCE                       2.05       TIME AVG. FORCE        1.08    
 LARGEST SCALED RESIDUAL FORCE      2.100E-03   AT NODE      37081   DOF  2
   INSTANCE: CHD2-M-1                                                                        
  CORRESPONDING RESIDUAL FORCE      2.100E-03
 LARGEST INCREMENT OF DISP.         1.900E-05   AT NODE       1838   DOF  2
   INSTANCE: CHD2-M-1                                                                        
 LARGEST CORRECTION TO DISP.       -1.144E-08   AT NODE       8123   DOF  3
   INSTANCE: CHD2-M-1                                                                        
          THE FORCE     EQUILIBRIUM EQUATIONS HAVE CONVERGED

 ITERATION SUMMARY FOR THE INCREMENT:   1 TOTAL ITERATIONS, OF WHICH
   0 ARE SEVERE DISCONTINUITY ITERATIONS AND  1 ARE EQUILIBRIUM ITERATIONS.

 TIME INCREMENT COMPLETED   10.0    ,  FRACTION OF STEP COMPLETED  0.210    
 STEP TIME COMPLETED        210.    ,  TOTAL TIME COMPLETED         210.    


  INCREMENT    22 STARTS. ATTEMPT NUMBER  1, TIME INCREMENT   10.0    
 
	SYMMETRIC NEW DIRECT SPARSE SOLVER RUNNING ON
 	1 HOST x 1 MPI RANK PER HOST x 8 THREADS PER RANK
        NUMBER OF EQUATIONS:  128871
        NUMBER OF RHS:        1
        NUMBER OF FLOPS:      4.927e+10
        SOLVER ELAPSED TIME:  507ms

               CONVERGENCE CHECKS FOR EQUILIBRIUM ITERATION     1


 AVERAGE FORCE                       2.15       TIME AVG. FORCE        1.13    
 LARGEST SCALED RESIDUAL FORCE      1.659E-03   AT NODE       7258   DOF  3
   INSTANCE: CHD2-M-1                                                                        
  CORRESPONDING RESIDUAL FORCE      1.659E-03
 LARGEST INCREMENT OF DISP.         1.900E-05   AT NODE       1838   DOF  2
   INSTANCE: CHD2-M-1                                                                        
 LARGEST CORRECTION TO DISP.       -1.535E-08   AT NODE       8389   DOF  3
   INSTANCE: CHD2-M-1                                                                        
          THE FORCE     EQUILIBRIUM EQUATIONS HAVE CONVERGED

 ITERATION SUMMARY FOR THE INCREMENT:   1 TOTAL ITERATIONS, OF WHICH
   0 ARE SEVERE DISCONTINUITY ITERATIONS AND  1 ARE EQUILIBRIUM ITERATIONS.

 TIME INCREMENT COMPLETED   10.0    ,  FRACTION OF STEP COMPLETED  0.220    
 STEP TIME COMPLETED        220.    ,  TOTAL TIME COMPLETED         220.    


  INCREMENT    23 STARTS. ATTEMPT NUMBER  1, TIME INCREMENT   10.0    
 
	SYMMETRIC NEW DIRECT SPARSE SOLVER RUNNING ON
 	1 HOST x 1 MPI RANK PER HOST x 8 THREADS PER RANK
        NUMBER OF EQUATIONS:  128871
        NUMBER OF RHS:        1
        NUMBER OF FLOPS:      4.927e+10
        SOLVER ELAPSED TIME:  498ms

               CONVERGENCE CHECKS FOR EQUILIBRIUM ITERATION     1


 AVERAGE FORCE                       2.25       TIME AVG. FORCE        1.17    
 LARGEST SCALED RESIDUAL FORCE     -2.942E-03   AT NODE      17641   DOF  2
   INSTANCE: CHD2-M-1                                                                        
  CORRESPONDING RESIDUAL FORCE     -2.942E-03
 LARGEST INCREMENT OF DISP.         1.900E-05   AT NODE       1838   DOF  2
   INSTANCE: CHD2-M-1                                                                        
 LARGEST CORRECTION TO DISP.       -1.232E-08   AT NODE       8123   DOF  3
   INSTANCE: CHD2-M-1                                                                        
          THE FORCE     EQUILIBRIUM EQUATIONS HAVE CONVERGED

 ITERATION SUMMARY FOR THE INCREMENT:   1 TOTAL ITERATIONS, OF WHICH
   0 ARE SEVERE DISCONTINUITY ITERATIONS AND  1 ARE EQUILIBRIUM ITERATIONS.

 TIME INCREMENT COMPLETED   10.0    ,  FRACTION OF STEP COMPLETED  0.230    
 STEP TIME COMPLETED        230.    ,  TOTAL TIME COMPLETED         230.    


  INCREMENT    24 STARTS. ATTEMPT NUMBER  1, TIME INCREMENT   10.0    
 
	SYMMETRIC NEW DIRECT SPARSE SOLVER RUNNING ON
 	1 HOST x 1 MPI RANK PER HOST x 8 THREADS PER RANK
        NUMBER OF EQUATIONS:  128871
        NUMBER OF RHS:        1
        NUMBER OF FLOPS:      4.927e+10
        SOLVER ELAPSED TIME:  511ms

               CONVERGENCE CHECKS FOR EQUILIBRIUM ITERATION     1


 AVERAGE FORCE                       2.34       TIME AVG. FORCE        1.22    
 LARGEST SCALED RESIDUAL FORCE      5.303E-03   AT NODE      20277   DOF  2
   INSTANCE: CHD2-M-1                                                                        
  CORRESPONDING RESIDUAL FORCE      5.303E-03
 LARGEST INCREMENT OF DISP.         1.900E-05   AT NODE       1838   DOF  2
   INSTANCE: CHD2-M-1                                                                        
 LARGEST CORRECTION TO DISP.       -1.173E-08   AT NODE       8095   DOF  3
   INSTANCE: CHD2-M-1                                                                        
          THE FORCE     EQUILIBRIUM EQUATIONS HAVE CONVERGED

 ITERATION SUMMARY FOR THE INCREMENT:   1 TOTAL ITERATIONS, OF WHICH
   0 ARE SEVERE DISCONTINUITY ITERATIONS AND  1 ARE EQUILIBRIUM ITERATIONS.

 TIME INCREMENT COMPLETED   10.0    ,  FRACTION OF STEP COMPLETED  0.240    
 STEP TIME COMPLETED        240.    ,  TOTAL TIME COMPLETED         240.    


  INCREMENT    25 STARTS. ATTEMPT NUMBER  1, TIME INCREMENT   10.0    
 
	SYMMETRIC NEW DIRECT SPARSE SOLVER RUNNING ON
 	1 HOST x 1 MPI RANK PER HOST x 8 THREADS PER RANK
        NUMBER OF EQUATIONS:  128871
        NUMBER OF RHS:        1
        NUMBER OF FLOPS:      4.927e+10
        SOLVER ELAPSED TIME:  508ms

               CONVERGENCE CHECKS FOR EQUILIBRIUM ITERATION     1


 AVERAGE FORCE                       2.44       TIME AVG. FORCE        1.27    
 LARGEST SCALED RESIDUAL FORCE      1.112E-03   AT NODE      31912   DOF  2
   INSTANCE: CHD2-M-1                                                                        
  CORRESPONDING RESIDUAL FORCE      1.112E-03
 LARGEST INCREMENT OF DISP.         1.900E-05   AT NODE       1838   DOF  2
   INSTANCE: CHD2-M-1                                                                        
 LARGEST CORRECTION TO DISP.        1.136E-08   AT NODE      11552   DOF  2
   INSTANCE: CHD2-M-1                                                                        
          THE FORCE     EQUILIBRIUM EQUATIONS HAVE CONVERGED

 ITERATION SUMMARY FOR THE INCREMENT:   1 TOTAL ITERATIONS, OF WHICH
   0 ARE SEVERE DISCONTINUITY ITERATIONS AND  1 ARE EQUILIBRIUM ITERATIONS.

 TIME INCREMENT COMPLETED   10.0    ,  FRACTION OF STEP COMPLETED  0.250    
 STEP TIME COMPLETED        250.    ,  TOTAL TIME COMPLETED         250.    


  INCREMENT    26 STARTS. ATTEMPT NUMBER  1, TIME INCREMENT   10.0    
 
	SYMMETRIC NEW DIRECT SPARSE SOLVER RUNNING ON
 	1 HOST x 1 MPI RANK PER HOST x 8 THREADS PER RANK
        NUMBER OF EQUATIONS:  128871
        NUMBER OF RHS:        1
        NUMBER OF FLOPS:      4.927e+10
        SOLVER ELAPSED TIME:  509ms

               CONVERGENCE CHECKS FOR EQUILIBRIUM ITERATION     1


 AVERAGE FORCE                       2.53       TIME AVG. FORCE        1.32    
 LARGEST SCALED RESIDUAL FORCE     -2.294E-03   AT NODE      31713   DOF  2
   INSTANCE: CHD2-M-1                                                                        
  CORRESPONDING RESIDUAL FORCE     -2.294E-03
 LARGEST INCREMENT OF DISP.         1.900E-05   AT NODE       1838   DOF  2
   INSTANCE: CHD2-M-1                                                                        
 LARGEST CORRECTION TO DISP.        1.147E-08   AT NODE      11552   DOF  2
   INSTANCE: CHD2-M-1                                                                        
          THE FORCE     EQUILIBRIUM EQUATIONS HAVE CONVERGED

 ITERATION SUMMARY FOR THE INCREMENT:   1 TOTAL ITERATIONS, OF WHICH
   0 ARE SEVERE DISCONTINUITY ITERATIONS AND  1 ARE EQUILIBRIUM ITERATIONS.

 TIME INCREMENT COMPLETED   10.0    ,  FRACTION OF STEP COMPLETED  0.260    
 STEP TIME COMPLETED        260.    ,  TOTAL TIME COMPLETED         260.    


  INCREMENT    27 STARTS. ATTEMPT NUMBER  1, TIME INCREMENT   10.0    
 
	SYMMETRIC NEW DIRECT SPARSE SOLVER RUNNING ON
 	1 HOST x 1 MPI RANK PER HOST x 8 THREADS PER RANK
        NUMBER OF EQUATIONS:  128871
        NUMBER OF RHS:        1
        NUMBER OF FLOPS:      4.927e+10
        SOLVER ELAPSED TIME:  498ms

               CONVERGENCE CHECKS FOR EQUILIBRIUM ITERATION     1


 AVERAGE FORCE                       2.63       TIME AVG. FORCE        1.37    
 LARGEST SCALED RESIDUAL FORCE      2.392E-03   AT NODE      20509   DOF  2
   INSTANCE: CHD2-M-1                                                                        
  CORRESPONDING RESIDUAL FORCE      2.392E-03
 LARGEST INCREMENT OF DISP.         1.900E-05   AT NODE       1838   DOF  2
   INSTANCE: CHD2-M-1                                                                        
 LARGEST CORRECTION TO DISP.        1.252E-08   AT NODE      11520   DOF  2
   INSTANCE: CHD2-M-1                                                                        
          THE FORCE     EQUILIBRIUM EQUATIONS HAVE CONVERGED

 ITERATION SUMMARY FOR THE INCREMENT:   1 TOTAL ITERATIONS, OF WHICH
   0 ARE SEVERE DISCONTINUITY ITERATIONS AND  1 ARE EQUILIBRIUM ITERATIONS.

 TIME INCREMENT COMPLETED   10.0    ,  FRACTION OF STEP COMPLETED  0.270    
 STEP TIME COMPLETED        270.    ,  TOTAL TIME COMPLETED         270.    


  INCREMENT    28 STARTS. ATTEMPT NUMBER  1, TIME INCREMENT   10.0    
 
	SYMMETRIC NEW DIRECT SPARSE SOLVER RUNNING ON
 	1 HOST x 1 MPI RANK PER HOST x 8 THREADS PER RANK
        NUMBER OF EQUATIONS:  128871
        NUMBER OF RHS:        1
        NUMBER OF FLOPS:      4.927e+10
        SOLVER ELAPSED TIME:  504ms

               CONVERGENCE CHECKS FOR EQUILIBRIUM ITERATION     1


 AVERAGE FORCE                       2.72       TIME AVG. FORCE        1.42    
 LARGEST SCALED RESIDUAL FORCE      3.702E-03   AT NODE      37042   DOF  3
   INSTANCE: CHD2-M-1                                                                        
  CORRESPONDING RESIDUAL FORCE      3.702E-03
 LARGEST INCREMENT OF DISP.         1.900E-05   AT NODE       1838   DOF  2
   INSTANCE: CHD2-M-1                                                                        
 LARGEST CORRECTION TO DISP.        1.357E-08   AT NODE       5353   DOF  2
   INSTANCE: CHD2-M-1                                                                        
          THE FORCE     EQUILIBRIUM EQUATIONS HAVE CONVERGED

 ITERATION SUMMARY FOR THE INCREMENT:   1 TOTAL ITERATIONS, OF WHICH
   0 ARE SEVERE DISCONTINUITY ITERATIONS AND  1 ARE EQUILIBRIUM ITERATIONS.

 TIME INCREMENT COMPLETED   10.0    ,  FRACTION OF STEP COMPLETED  0.280    
 STEP TIME COMPLETED        280.    ,  TOTAL TIME COMPLETED         280.    


  INCREMENT    29 STARTS. ATTEMPT NUMBER  1, TIME INCREMENT   10.0    
 
	SYMMETRIC NEW DIRECT SPARSE SOLVER RUNNING ON
 	1 HOST x 1 MPI RANK PER HOST x 8 THREADS PER RANK
        NUMBER OF EQUATIONS:  128871
        NUMBER OF RHS:        1
        NUMBER OF FLOPS:      4.927e+10
        SOLVER ELAPSED TIME:  505ms

               CONVERGENCE CHECKS FOR EQUILIBRIUM ITERATION     1


 AVERAGE FORCE                       2.82       TIME AVG. FORCE        1.47    
 LARGEST SCALED RESIDUAL FORCE     -4.142E-03   AT NODE       7896   DOF  3
   INSTANCE: CHD2-M-1                                                                        
  CORRESPONDING RESIDUAL FORCE     -4.142E-03
 LARGEST INCREMENT OF DISP.         1.900E-05   AT NODE       1838   DOF  2
   INSTANCE: CHD2-M-1                                                                        
 LARGEST CORRECTION TO DISP.        1.407E-08   AT NODE      17607   DOF  2
   INSTANCE: CHD2-M-1                                                                        
          THE FORCE     EQUILIBRIUM EQUATIONS HAVE CONVERGED

 ITERATION SUMMARY FOR THE INCREMENT:   1 TOTAL ITERATIONS, OF WHICH
   0 ARE SEVERE DISCONTINUITY ITERATIONS AND  1 ARE EQUILIBRIUM ITERATIONS.

 TIME INCREMENT COMPLETED   10.0    ,  FRACTION OF STEP COMPLETED  0.290    
 STEP TIME COMPLETED        290.    ,  TOTAL TIME COMPLETED         290.    


  INCREMENT    30 STARTS. ATTEMPT NUMBER  1, TIME INCREMENT   10.0    
 
	SYMMETRIC NEW DIRECT SPARSE SOLVER RUNNING ON
 	1 HOST x 1 MPI RANK PER HOST x 8 THREADS PER RANK
        NUMBER OF EQUATIONS:  128871
        NUMBER OF RHS:        1
        NUMBER OF FLOPS:      4.927e+10
        SOLVER ELAPSED TIME:  497ms

               CONVERGENCE CHECKS FOR EQUILIBRIUM ITERATION     1


 AVERAGE FORCE                       2.91       TIME AVG. FORCE        1.51    
 LARGEST SCALED RESIDUAL FORCE     -4.881E-03   AT NODE       7842   DOF  3
   INSTANCE: CHD2-M-1                                                                        
  CORRESPONDING RESIDUAL FORCE     -4.881E-03
 LARGEST INCREMENT OF DISP.         1.900E-05   AT NODE       1838   DOF  2
   INSTANCE: CHD2-M-1                                                                        
 LARGEST CORRECTION TO DISP.        1.476E-08   AT NODE      11510   DOF  2
   INSTANCE: CHD2-M-1                                                                        
          THE FORCE     EQUILIBRIUM EQUATIONS HAVE CONVERGED

 ITERATION SUMMARY FOR THE INCREMENT:   1 TOTAL ITERATIONS, OF WHICH
   0 ARE SEVERE DISCONTINUITY ITERATIONS AND  1 ARE EQUILIBRIUM ITERATIONS.

 TIME INCREMENT COMPLETED   10.0    ,  FRACTION OF STEP COMPLETED  0.300    
 STEP TIME COMPLETED        300.    ,  TOTAL TIME COMPLETED         300.    


  INCREMENT    31 STARTS. ATTEMPT NUMBER  1, TIME INCREMENT   10.0    
 
	SYMMETRIC NEW DIRECT SPARSE SOLVER RUNNING ON
 	1 HOST x 1 MPI RANK PER HOST x 8 THREADS PER RANK
        NUMBER OF EQUATIONS:  128871
        NUMBER OF RHS:        1
        NUMBER OF FLOPS:      4.927e+10
        SOLVER ELAPSED TIME:  511ms

               CONVERGENCE CHECKS FOR EQUILIBRIUM ITERATION     1


 AVERAGE FORCE                       3.00       TIME AVG. FORCE        1.56    
 LARGEST SCALED RESIDUAL FORCE      5.726E-03   AT NODE      20261   DOF  2
   INSTANCE: CHD2-M-1                                                                        
  CORRESPONDING RESIDUAL FORCE      5.726E-03
 LARGEST INCREMENT OF DISP.         1.900E-05   AT NODE       1838   DOF  2
   INSTANCE: CHD2-M-1                                                                        
 LARGEST CORRECTION TO DISP.        1.621E-08   AT NODE       5355   DOF  2
   INSTANCE: CHD2-M-1                                                                        
          THE FORCE     EQUILIBRIUM EQUATIONS HAVE CONVERGED

 ITERATION SUMMARY FOR THE INCREMENT:   1 TOTAL ITERATIONS, OF WHICH
   0 ARE SEVERE DISCONTINUITY ITERATIONS AND  1 ARE EQUILIBRIUM ITERATIONS.

 TIME INCREMENT COMPLETED   10.0    ,  FRACTION OF STEP COMPLETED  0.310    
 STEP TIME COMPLETED        310.    ,  TOTAL TIME COMPLETED         310.    


  INCREMENT    32 STARTS. ATTEMPT NUMBER  1, TIME INCREMENT   10.0    
 
	SYMMETRIC NEW DIRECT SPARSE SOLVER RUNNING ON
 	1 HOST x 1 MPI RANK PER HOST x 8 THREADS PER RANK
        NUMBER OF EQUATIONS:  128871
        NUMBER OF RHS:        1
        NUMBER OF FLOPS:      4.927e+10
        SOLVER ELAPSED TIME:  482ms

               CONVERGENCE CHECKS FOR EQUILIBRIUM ITERATION     1


 AVERAGE FORCE                       3.10       TIME AVG. FORCE        1.61    
 LARGEST SCALED RESIDUAL FORCE     -4.258E-03   AT NODE      31960   DOF  2
   INSTANCE: CHD2-M-1                                                                        
  CORRESPONDING RESIDUAL FORCE     -4.258E-03
 LARGEST INCREMENT OF DISP.         1.900E-05   AT NODE       1838   DOF  2
   INSTANCE: CHD2-M-1                                                                        
 LARGEST CORRECTION TO DISP.        1.726E-08   AT NODE      11815   DOF  2
   INSTANCE: CHD2-M-1                                                                        
          THE FORCE     EQUILIBRIUM EQUATIONS HAVE CONVERGED

 ITERATION SUMMARY FOR THE INCREMENT:   1 TOTAL ITERATIONS, OF WHICH
   0 ARE SEVERE DISCONTINUITY ITERATIONS AND  1 ARE EQUILIBRIUM ITERATIONS.

 TIME INCREMENT COMPLETED   10.0    ,  FRACTION OF STEP COMPLETED  0.320    
 STEP TIME COMPLETED        320.    ,  TOTAL TIME COMPLETED         320.    


  INCREMENT    33 STARTS. ATTEMPT NUMBER  1, TIME INCREMENT   10.0    
 
	SYMMETRIC NEW DIRECT SPARSE SOLVER RUNNING ON
 	1 HOST x 1 MPI RANK PER HOST x 8 THREADS PER RANK
        NUMBER OF EQUATIONS:  128871
        NUMBER OF RHS:        1
        NUMBER OF FLOPS:      4.927e+10
        SOLVER ELAPSED TIME:  502ms

               CONVERGENCE CHECKS FOR EQUILIBRIUM ITERATION     1


 AVERAGE FORCE                       3.19       TIME AVG. FORCE        1.66    
 LARGEST SCALED RESIDUAL FORCE      4.708E-03   AT NODE      17589   DOF  3
   INSTANCE: CHD2-M-1                                                                        
  CORRESPONDING RESIDUAL FORCE      4.708E-03
 LARGEST INCREMENT OF DISP.         1.900E-05   AT NODE       1838   DOF  2
   INSTANCE: CHD2-M-1                                                                        
 LARGEST CORRECTION TO DISP.        1.930E-08   AT NODE      12195   DOF  2
   INSTANCE: CHD2-M-1                                                                        
          THE FORCE     EQUILIBRIUM EQUATIONS HAVE CONVERGED

 ITERATION SUMMARY FOR THE INCREMENT:   1 TOTAL ITERATIONS, OF WHICH
   0 ARE SEVERE DISCONTINUITY ITERATIONS AND  1 ARE EQUILIBRIUM ITERATIONS.

 TIME INCREMENT COMPLETED   10.0    ,  FRACTION OF STEP COMPLETED  0.330    
 STEP TIME COMPLETED        330.    ,  TOTAL TIME COMPLETED         330.    


  INCREMENT    34 STARTS. ATTEMPT NUMBER  1, TIME INCREMENT   10.0    
 
	SYMMETRIC NEW DIRECT SPARSE SOLVER RUNNING ON
 	1 HOST x 1 MPI RANK PER HOST x 8 THREADS PER RANK
        NUMBER OF EQUATIONS:  128871
        NUMBER OF RHS:        1
        NUMBER OF FLOPS:      4.927e+10
        SOLVER ELAPSED TIME:  503ms

               CONVERGENCE CHECKS FOR EQUILIBRIUM ITERATION     1


 AVERAGE FORCE                       3.28       TIME AVG. FORCE        1.71    
 LARGEST SCALED RESIDUAL FORCE     -4.119E-03   AT NODE      15239   DOF  2
   INSTANCE: CHD2-M-1                                                                        
  CORRESPONDING RESIDUAL FORCE     -4.119E-03
 LARGEST INCREMENT OF DISP.         1.900E-05   AT NODE       1838   DOF  2
   INSTANCE: CHD2-M-1                                                                        
 LARGEST CORRECTION TO DISP.        2.260E-08   AT NODE       8834   DOF  2
   INSTANCE: CHD2-M-1                                                                        
          THE FORCE     EQUILIBRIUM EQUATIONS HAVE CONVERGED

 ITERATION SUMMARY FOR THE INCREMENT:   1 TOTAL ITERATIONS, OF WHICH
   0 ARE SEVERE DISCONTINUITY ITERATIONS AND  1 ARE EQUILIBRIUM ITERATIONS.

 TIME INCREMENT COMPLETED   10.0    ,  FRACTION OF STEP COMPLETED  0.340    
 STEP TIME COMPLETED        340.    ,  TOTAL TIME COMPLETED         340.    


  INCREMENT    35 STARTS. ATTEMPT NUMBER  1, TIME INCREMENT   10.0    
 
	SYMMETRIC NEW DIRECT SPARSE SOLVER RUNNING ON
 	1 HOST x 1 MPI RANK PER HOST x 8 THREADS PER RANK
        NUMBER OF EQUATIONS:  128871
        NUMBER OF RHS:        1
        NUMBER OF FLOPS:      4.927e+10
        SOLVER ELAPSED TIME:  485ms

               CONVERGENCE CHECKS FOR EQUILIBRIUM ITERATION     1


 AVERAGE FORCE                       3.37       TIME AVG. FORCE        1.75    
 LARGEST SCALED RESIDUAL FORCE      7.338E-03   AT NODE      19811   DOF  2
   INSTANCE: CHD2-M-1                                                                        
  CORRESPONDING RESIDUAL FORCE      7.338E-03
 LARGEST INCREMENT OF DISP.         1.900E-05   AT NODE       1838   DOF  2
   INSTANCE: CHD2-M-1                                                                        
 LARGEST CORRECTION TO DISP.        2.755E-08   AT NODE      15701   DOF  2
   INSTANCE: CHD2-M-1                                                                        
          THE FORCE     EQUILIBRIUM EQUATIONS HAVE CONVERGED

 ITERATION SUMMARY FOR THE INCREMENT:   1 TOTAL ITERATIONS, OF WHICH
   0 ARE SEVERE DISCONTINUITY ITERATIONS AND  1 ARE EQUILIBRIUM ITERATIONS.

 TIME INCREMENT COMPLETED   10.0    ,  FRACTION OF STEP COMPLETED  0.350    
 STEP TIME COMPLETED        350.    ,  TOTAL TIME COMPLETED         350.    


  INCREMENT    36 STARTS. ATTEMPT NUMBER  1, TIME INCREMENT   10.0    
 
	SYMMETRIC NEW DIRECT SPARSE SOLVER RUNNING ON
 	1 HOST x 1 MPI RANK PER HOST x 8 THREADS PER RANK
        NUMBER OF EQUATIONS:  128871
        NUMBER OF RHS:        1
        NUMBER OF FLOPS:      4.927e+10
        SOLVER ELAPSED TIME:  512ms

               CONVERGENCE CHECKS FOR EQUILIBRIUM ITERATION     1


 AVERAGE FORCE                       3.45       TIME AVG. FORCE        1.80    
 LARGEST SCALED RESIDUAL FORCE     -9.094E-03   AT NODE      37401   DOF  2
   INSTANCE: CHD2-M-1                                                                        
  CORRESPONDING RESIDUAL FORCE     -9.094E-03
 LARGEST INCREMENT OF DISP.         1.900E-05   AT NODE       1838   DOF  2
   INSTANCE: CHD2-M-1                                                                        
 LARGEST CORRECTION TO DISP.        3.436E-08   AT NODE      18355   DOF  2
   INSTANCE: CHD2-M-1                                                                        
          FORCE     EQUILIBRIUM NOT ACHIEVED WITHIN TOLERANCE.
 
	SYMMETRIC NEW DIRECT SPARSE SOLVER RUNNING ON
 	1 HOST x 1 MPI RANK PER HOST x 8 THREADS PER RANK
        NUMBER OF EQUATIONS:  128871
        NUMBER OF RHS:        1
        NUMBER OF FLOPS:      4.927e+10
        SOLVER ELAPSED TIME:  504ms

               CONVERGENCE CHECKS FOR EQUILIBRIUM ITERATION     2


 AVERAGE FORCE                       3.45       TIME AVG. FORCE        1.80    
 LARGEST SCALED RESIDUAL FORCE     -8.897E-05   AT NODE      25876   DOF  2
   INSTANCE: CHD2-M-1                                                                        
  CORRESPONDING RESIDUAL FORCE     -8.897E-05
 LARGEST INCREMENT OF DISP.         1.900E-05   AT NODE       1838   DOF  2
   INSTANCE: CHD2-M-1                                                                        
 LARGEST CORRECTION TO DISP.        4.520E-10   AT NODE      17490   DOF  2
   INSTANCE: CHD2-M-1                                                                        
          THE FORCE     EQUILIBRIUM EQUATIONS HAVE CONVERGED

 ITERATION SUMMARY FOR THE INCREMENT:   2 TOTAL ITERATIONS, OF WHICH
   0 ARE SEVERE DISCONTINUITY ITERATIONS AND  2 ARE EQUILIBRIUM ITERATIONS.

 TIME INCREMENT COMPLETED   10.0    ,  FRACTION OF STEP COMPLETED  0.360    
 STEP TIME COMPLETED        360.    ,  TOTAL TIME COMPLETED         360.    


  INCREMENT    37 STARTS. ATTEMPT NUMBER  1, TIME INCREMENT   10.0    
 
	SYMMETRIC NEW DIRECT SPARSE SOLVER RUNNING ON
 	1 HOST x 1 MPI RANK PER HOST x 8 THREADS PER RANK
        NUMBER OF EQUATIONS:  128871
        NUMBER OF RHS:        1
        NUMBER OF FLOPS:      4.927e+10
        SOLVER ELAPSED TIME:  495ms

               CONVERGENCE CHECKS FOR EQUILIBRIUM ITERATION     1


 AVERAGE FORCE                       3.54       TIME AVG. FORCE        1.85    
 LARGEST SCALED RESIDUAL FORCE     -1.211E-02   AT NODE      34123   DOF  2
   INSTANCE: CHD2-M-1                                                                        
  CORRESPONDING RESIDUAL FORCE     -1.211E-02
 LARGEST INCREMENT OF DISP.         1.900E-05   AT NODE       1838   DOF  2
   INSTANCE: CHD2-M-1                                                                        
 LARGEST CORRECTION TO DISP.        3.878E-08   AT NODE      18327   DOF  2
   INSTANCE: CHD2-M-1                                                                        
          FORCE     EQUILIBRIUM NOT ACHIEVED WITHIN TOLERANCE.
 
	SYMMETRIC NEW DIRECT SPARSE SOLVER RUNNING ON
 	1 HOST x 1 MPI RANK PER HOST x 8 THREADS PER RANK
        NUMBER OF EQUATIONS:  128871
        NUMBER OF RHS:        1
        NUMBER OF FLOPS:      4.927e+10
        SOLVER ELAPSED TIME:  503ms

               CONVERGENCE CHECKS FOR EQUILIBRIUM ITERATION     2


 AVERAGE FORCE                       3.54       TIME AVG. FORCE        1.85    
 LARGEST SCALED RESIDUAL FORCE      9.362E-05   AT NODE      34027   DOF  2
   INSTANCE: CHD2-M-1                                                                        
  CORRESPONDING RESIDUAL FORCE      9.362E-05
 LARGEST INCREMENT OF DISP.         1.900E-05   AT NODE       1838   DOF  2
   INSTANCE: CHD2-M-1                                                                        
 LARGEST CORRECTION TO DISP.       -6.280E-10   AT NODE      23490   DOF  2
   INSTANCE: CHD2-M-1                                                                        
          THE FORCE     EQUILIBRIUM EQUATIONS HAVE CONVERGED

 ITERATION SUMMARY FOR THE INCREMENT:   2 TOTAL ITERATIONS, OF WHICH
   0 ARE SEVERE DISCONTINUITY ITERATIONS AND  2 ARE EQUILIBRIUM ITERATIONS.

 TIME INCREMENT COMPLETED   10.0    ,  FRACTION OF STEP COMPLETED  0.370    
 STEP TIME COMPLETED        370.    ,  TOTAL TIME COMPLETED         370.    


  INCREMENT    38 STARTS. ATTEMPT NUMBER  1, TIME INCREMENT   10.0    
 
	SYMMETRIC NEW DIRECT SPARSE SOLVER RUNNING ON
 	1 HOST x 1 MPI RANK PER HOST x 8 THREADS PER RANK
        NUMBER OF EQUATIONS:  128871
        NUMBER OF RHS:        1
        NUMBER OF FLOPS:      4.927e+10
        SOLVER ELAPSED TIME:  492ms

               CONVERGENCE CHECKS FOR EQUILIBRIUM ITERATION     1


 AVERAGE FORCE                       3.62       TIME AVG. FORCE        1.89    
 LARGEST SCALED RESIDUAL FORCE     -1.261E-02   AT NODE      20162   DOF  2
   INSTANCE: CHD2-M-1                                                                        
  CORRESPONDING RESIDUAL FORCE     -1.261E-02
 LARGEST INCREMENT OF DISP.         1.900E-05   AT NODE       1838   DOF  2
   INSTANCE: CHD2-M-1                                                                        
 LARGEST CORRECTION TO DISP.        4.540E-08   AT NODE      11309   DOF  2
   INSTANCE: CHD2-M-1                                                                        
          FORCE     EQUILIBRIUM NOT ACHIEVED WITHIN TOLERANCE.
 
	SYMMETRIC NEW DIRECT SPARSE SOLVER RUNNING ON
 	1 HOST x 1 MPI RANK PER HOST x 8 THREADS PER RANK
        NUMBER OF EQUATIONS:  128871
        NUMBER OF RHS:        1
        NUMBER OF FLOPS:      4.927e+10
        SOLVER ELAPSED TIME:  501ms

               CONVERGENCE CHECKS FOR EQUILIBRIUM ITERATION     2


 AVERAGE FORCE                       3.62       TIME AVG. FORCE        1.89    
 LARGEST SCALED RESIDUAL FORCE      1.491E-04   AT NODE      32106   DOF  2
   INSTANCE: CHD2-M-1                                                                        
  CORRESPONDING RESIDUAL FORCE      1.491E-04
 LARGEST INCREMENT OF DISP.         1.900E-05   AT NODE       1838   DOF  2
   INSTANCE: CHD2-M-1                                                                        
 LARGEST CORRECTION TO DISP.        8.468E-10   AT NODE      20904   DOF  2
   INSTANCE: CHD2-M-1                                                                        
          THE FORCE     EQUILIBRIUM EQUATIONS HAVE CONVERGED

 ITERATION SUMMARY FOR THE INCREMENT:   2 TOTAL ITERATIONS, OF WHICH
   0 ARE SEVERE DISCONTINUITY ITERATIONS AND  2 ARE EQUILIBRIUM ITERATIONS.

 TIME INCREMENT COMPLETED   10.0    ,  FRACTION OF STEP COMPLETED  0.380    
 STEP TIME COMPLETED        380.    ,  TOTAL TIME COMPLETED         380.    


  INCREMENT    39 STARTS. ATTEMPT NUMBER  1, TIME INCREMENT   10.0    
 
	SYMMETRIC NEW DIRECT SPARSE SOLVER RUNNING ON
 	1 HOST x 1 MPI RANK PER HOST x 8 THREADS PER RANK
        NUMBER OF EQUATIONS:  128871
        NUMBER OF RHS:        1
        NUMBER OF FLOPS:      4.927e+10
        SOLVER ELAPSED TIME:  506ms

               CONVERGENCE CHECKS FOR EQUILIBRIUM ITERATION     1


 AVERAGE FORCE                       3.69       TIME AVG. FORCE        1.94    
 LARGEST SCALED RESIDUAL FORCE      1.161E-02   AT NODE      20858   DOF  2
   INSTANCE: CHD2-M-1                                                                        
  CORRESPONDING RESIDUAL FORCE      1.161E-02
 LARGEST INCREMENT OF DISP.         1.900E-05   AT NODE       1838   DOF  2
   INSTANCE: CHD2-M-1                                                                        
 LARGEST CORRECTION TO DISP.        5.588E-08   AT NODE       5724   DOF  2
   INSTANCE: CHD2-M-1                                                                        
          FORCE     EQUILIBRIUM NOT ACHIEVED WITHIN TOLERANCE.
 
	SYMMETRIC NEW DIRECT SPARSE SOLVER RUNNING ON
 	1 HOST x 1 MPI RANK PER HOST x 8 THREADS PER RANK
        NUMBER OF EQUATIONS:  128871
        NUMBER OF RHS:        1
        NUMBER OF FLOPS:      4.927e+10
        SOLVER ELAPSED TIME:  490ms

               CONVERGENCE CHECKS FOR EQUILIBRIUM ITERATION     2


 AVERAGE FORCE                       3.69       TIME AVG. FORCE        1.94    
 LARGEST SCALED RESIDUAL FORCE      3.843E-04   AT NODE      21164   DOF  2
   INSTANCE: CHD2-M-1                                                                        
  CORRESPONDING RESIDUAL FORCE      3.843E-04
 LARGEST INCREMENT OF DISP.         1.900E-05   AT NODE       1838   DOF  2
   INSTANCE: CHD2-M-1                                                                        
 LARGEST CORRECTION TO DISP.       -1.017E-09   AT NODE      38049   DOF  2
   INSTANCE: CHD2-M-1                                                                        
          THE FORCE     EQUILIBRIUM EQUATIONS HAVE CONVERGED

 ITERATION SUMMARY FOR THE INCREMENT:   2 TOTAL ITERATIONS, OF WHICH
   0 ARE SEVERE DISCONTINUITY ITERATIONS AND  2 ARE EQUILIBRIUM ITERATIONS.

 TIME INCREMENT COMPLETED   10.0    ,  FRACTION OF STEP COMPLETED  0.390    
 STEP TIME COMPLETED        390.    ,  TOTAL TIME COMPLETED         390.    


  INCREMENT    40 STARTS. ATTEMPT NUMBER  1, TIME INCREMENT   10.0    
 
	SYMMETRIC NEW DIRECT SPARSE SOLVER RUNNING ON
 	1 HOST x 1 MPI RANK PER HOST x 8 THREADS PER RANK
        NUMBER OF EQUATIONS:  128871
        NUMBER OF RHS:        1
        NUMBER OF FLOPS:      4.927e+10
        SOLVER ELAPSED TIME:  507ms

               CONVERGENCE CHECKS FOR EQUILIBRIUM ITERATION     1


 AVERAGE FORCE                       3.73       TIME AVG. FORCE        1.98    
 LARGEST SCALED RESIDUAL FORCE      1.328E-02   AT NODE      38161   DOF  1
   INSTANCE: CHD2-M-1                                                                        
  CORRESPONDING RESIDUAL FORCE      1.328E-02
 LARGEST INCREMENT OF DISP.         1.900E-05   AT NODE       1838   DOF  2
   INSTANCE: CHD2-M-1                                                                        
 LARGEST CORRECTION TO DISP.        7.274E-08   AT NODE      10975   DOF  2
   INSTANCE: CHD2-M-1                                                                        
          FORCE     EQUILIBRIUM NOT ACHIEVED WITHIN TOLERANCE.
 
	SYMMETRIC NEW DIRECT SPARSE SOLVER RUNNING ON
 	1 HOST x 1 MPI RANK PER HOST x 8 THREADS PER RANK
        NUMBER OF EQUATIONS:  128871
        NUMBER OF RHS:        1
        NUMBER OF FLOPS:      4.927e+10
        SOLVER ELAPSED TIME:  496ms

               CONVERGENCE CHECKS FOR EQUILIBRIUM ITERATION     2


 AVERAGE FORCE                       3.73       TIME AVG. FORCE        1.98    
 LARGEST SCALED RESIDUAL FORCE      6.208E-04   AT NODE      36621   DOF  2
   INSTANCE: CHD2-M-1                                                                        
  CORRESPONDING RESIDUAL FORCE      6.208E-04
 LARGEST INCREMENT OF DISP.         1.900E-05   AT NODE       1838   DOF  2
   INSTANCE: CHD2-M-1                                                                        
 LARGEST CORRECTION TO DISP.       -1.316E-09   AT NODE      24274   DOF  2
   INSTANCE: CHD2-M-1                                                                        
          THE FORCE     EQUILIBRIUM EQUATIONS HAVE CONVERGED

 ITERATION SUMMARY FOR THE INCREMENT:   2 TOTAL ITERATIONS, OF WHICH
   0 ARE SEVERE DISCONTINUITY ITERATIONS AND  2 ARE EQUILIBRIUM ITERATIONS.

 TIME INCREMENT COMPLETED   10.0    ,  FRACTION OF STEP COMPLETED  0.400    
 STEP TIME COMPLETED        400.    ,  TOTAL TIME COMPLETED         400.    


  INCREMENT    41 STARTS. ATTEMPT NUMBER  1, TIME INCREMENT   10.0    
 
	SYMMETRIC NEW DIRECT SPARSE SOLVER RUNNING ON
 	1 HOST x 1 MPI RANK PER HOST x 8 THREADS PER RANK
        NUMBER OF EQUATIONS:  128871
        NUMBER OF RHS:        1
        NUMBER OF FLOPS:      4.927e+10
        SOLVER ELAPSED TIME:  503ms

               CONVERGENCE CHECKS FOR EQUILIBRIUM ITERATION     1


 AVERAGE FORCE                       3.77       TIME AVG. FORCE        2.03    
 LARGEST SCALED RESIDUAL FORCE     -1.543E-02   AT NODE      38268   DOF  1
   INSTANCE: CHD2-M-1                                                                        
  CORRESPONDING RESIDUAL FORCE     -1.543E-02
 LARGEST INCREMENT OF DISP.         1.900E-05   AT NODE       1838   DOF  2
   INSTANCE: CHD2-M-1                                                                        
 LARGEST CORRECTION TO DISP.        1.006E-07   AT NODE      39473   DOF  2
   INSTANCE: CHD2-M-1                                                                        
          FORCE     EQUILIBRIUM NOT ACHIEVED WITHIN TOLERANCE.
 
	SYMMETRIC NEW DIRECT SPARSE SOLVER RUNNING ON
 	1 HOST x 1 MPI RANK PER HOST x 8 THREADS PER RANK
        NUMBER OF EQUATIONS:  128871
        NUMBER OF RHS:        1
        NUMBER OF FLOPS:      4.927e+10
        SOLVER ELAPSED TIME:  481ms

               CONVERGENCE CHECKS FOR EQUILIBRIUM ITERATION     2


 AVERAGE FORCE                       3.78       TIME AVG. FORCE        2.03    
 LARGEST SCALED RESIDUAL FORCE      6.418E-04   AT NODE      30308   DOF  2
   INSTANCE: CHD2-M-1                                                                        
  CORRESPONDING RESIDUAL FORCE      6.418E-04
 LARGEST INCREMENT OF DISP.         1.900E-05   AT NODE       1838   DOF  2
   INSTANCE: CHD2-M-1                                                                        
 LARGEST CORRECTION TO DISP.       -2.072E-09   AT NODE      41079   DOF  2
   INSTANCE: CHD2-M-1                                                                        
          THE FORCE     EQUILIBRIUM EQUATIONS HAVE CONVERGED

 ITERATION SUMMARY FOR THE INCREMENT:   2 TOTAL ITERATIONS, OF WHICH
   0 ARE SEVERE DISCONTINUITY ITERATIONS AND  2 ARE EQUILIBRIUM ITERATIONS.

 TIME INCREMENT COMPLETED   10.0    ,  FRACTION OF STEP COMPLETED  0.410    
 STEP TIME COMPLETED        410.    ,  TOTAL TIME COMPLETED         410.    


  INCREMENT    42 STARTS. ATTEMPT NUMBER  1, TIME INCREMENT   10.0    
 
	SYMMETRIC NEW DIRECT SPARSE SOLVER RUNNING ON
 	1 HOST x 1 MPI RANK PER HOST x 8 THREADS PER RANK
        NUMBER OF EQUATIONS:  128871
        NUMBER OF RHS:        1
        NUMBER OF FLOPS:      4.927e+10
        SOLVER ELAPSED TIME:  503ms

               CONVERGENCE CHECKS FOR EQUILIBRIUM ITERATION     1


 AVERAGE FORCE                       3.82       TIME AVG. FORCE        2.07    
 LARGEST SCALED RESIDUAL FORCE      7.217E-02   AT NODE      42811   DOF  2
   INSTANCE: CHD2-M-1                                                                        
  CORRESPONDING RESIDUAL FORCE      7.217E-02
 LARGEST INCREMENT OF DISP.         1.900E-05   AT NODE       1838   DOF  2
   INSTANCE: CHD2-M-1                                                                        
 LARGEST CORRECTION TO DISP.        1.679E-07   AT NODE      38981   DOF  2
   INSTANCE: CHD2-M-1                                                                        
          FORCE     EQUILIBRIUM NOT ACHIEVED WITHIN TOLERANCE.
 
	SYMMETRIC NEW DIRECT SPARSE SOLVER RUNNING ON
 	1 HOST x 1 MPI RANK PER HOST x 8 THREADS PER RANK
        NUMBER OF EQUATIONS:  128871
        NUMBER OF RHS:        1
        NUMBER OF FLOPS:      4.927e+10
        SOLVER ELAPSED TIME:  498ms

               CONVERGENCE CHECKS FOR EQUILIBRIUM ITERATION     2


 AVERAGE FORCE                       3.82       TIME AVG. FORCE        2.07    
 LARGEST SCALED RESIDUAL FORCE     -2.644E-03   AT NODE      42834   DOF  3
   INSTANCE: CHD2-M-1                                                                        
  CORRESPONDING RESIDUAL FORCE     -2.644E-03
 LARGEST INCREMENT OF DISP.         1.900E-05   AT NODE       1838   DOF  2
   INSTANCE: CHD2-M-1                                                                        
 LARGEST CORRECTION TO DISP.        5.238E-09   AT NODE      39102   DOF  2
   INSTANCE: CHD2-M-1                                                                        
          THE FORCE     EQUILIBRIUM EQUATIONS HAVE CONVERGED

 ITERATION SUMMARY FOR THE INCREMENT:   2 TOTAL ITERATIONS, OF WHICH
   0 ARE SEVERE DISCONTINUITY ITERATIONS AND  2 ARE EQUILIBRIUM ITERATIONS.

 TIME INCREMENT COMPLETED   10.0    ,  FRACTION OF STEP COMPLETED  0.420    
 STEP TIME COMPLETED        420.    ,  TOTAL TIME COMPLETED         420.    


  INCREMENT    43 STARTS. ATTEMPT NUMBER  1, TIME INCREMENT   10.0    
 
	SYMMETRIC NEW DIRECT SPARSE SOLVER RUNNING ON
 	1 HOST x 1 MPI RANK PER HOST x 8 THREADS PER RANK
        NUMBER OF EQUATIONS:  128871
        NUMBER OF RHS:        1
        NUMBER OF FLOPS:      4.927e+10
        SOLVER ELAPSED TIME:  493ms

               CONVERGENCE CHECKS FOR EQUILIBRIUM ITERATION     1


 AVERAGE FORCE                       3.80       TIME AVG. FORCE        2.11    
 LARGEST SCALED RESIDUAL FORCE     -0.191       AT NODE        905   DOF  3
   INSTANCE: CHD2-M-1                                                                        
  CORRESPONDING RESIDUAL FORCE     -0.191    
 LARGEST INCREMENT OF DISP.         1.900E-05   AT NODE       1838   DOF  2
   INSTANCE: CHD2-M-1                                                                        
 LARGEST CORRECTION TO DISP.        3.829E-07   AT NODE       1935   DOF  2
   INSTANCE: CHD2-M-1                                                                        
          FORCE     EQUILIBRIUM NOT ACHIEVED WITHIN TOLERANCE.
 
	SYMMETRIC NEW DIRECT SPARSE SOLVER RUNNING ON
 	1 HOST x 1 MPI RANK PER HOST x 8 THREADS PER RANK
        NUMBER OF EQUATIONS:  128871
        NUMBER OF RHS:        1
        NUMBER OF FLOPS:      4.927e+10
        SOLVER ELAPSED TIME:  498ms

               CONVERGENCE CHECKS FOR EQUILIBRIUM ITERATION     2


 AVERAGE FORCE                       3.80       TIME AVG. FORCE        2.11    
 LARGEST SCALED RESIDUAL FORCE     -5.278E-03   AT NODE       1709   DOF  3
   INSTANCE: CHD2-M-1                                                                        
  CORRESPONDING RESIDUAL FORCE     -5.278E-03
 LARGEST INCREMENT OF DISP.         1.900E-05   AT NODE       1838   DOF  2
   INSTANCE: CHD2-M-1                                                                        
 LARGEST CORRECTION TO DISP.        1.316E-08   AT NODE      20072   DOF  2
   INSTANCE: CHD2-M-1                                                                        
          THE FORCE     EQUILIBRIUM EQUATIONS HAVE CONVERGED

 ITERATION SUMMARY FOR THE INCREMENT:   2 TOTAL ITERATIONS, OF WHICH
   0 ARE SEVERE DISCONTINUITY ITERATIONS AND  2 ARE EQUILIBRIUM ITERATIONS.

 TIME INCREMENT COMPLETED   10.0    ,  FRACTION OF STEP COMPLETED  0.430    
 STEP TIME COMPLETED        430.    ,  TOTAL TIME COMPLETED         430.    


  INCREMENT    44 STARTS. ATTEMPT NUMBER  1, TIME INCREMENT   10.0    
 
	SYMMETRIC NEW DIRECT SPARSE SOLVER RUNNING ON
 	1 HOST x 1 MPI RANK PER HOST x 8 THREADS PER RANK
        NUMBER OF EQUATIONS:  128871
        NUMBER OF RHS:        1
        NUMBER OF FLOPS:      4.927e+10
        SOLVER ELAPSED TIME:  508ms

               CONVERGENCE CHECKS FOR EQUILIBRIUM ITERATION     1


 AVERAGE FORCE                       3.81       TIME AVG. FORCE        2.15    
 LARGEST SCALED RESIDUAL FORCE     -0.390       AT NODE       2730   DOF  3
   INSTANCE: CHD2-M-1                                                                        
  CORRESPONDING RESIDUAL FORCE     -0.390    
 LARGEST INCREMENT OF DISP.         1.900E-05   AT NODE       1838   DOF  2
   INSTANCE: CHD2-M-1                                                                        
 LARGEST CORRECTION TO DISP.        4.978E-07   AT NODE       1899   DOF  2
   INSTANCE: CHD2-M-1                                                                        
          FORCE     EQUILIBRIUM NOT ACHIEVED WITHIN TOLERANCE.
 
	SYMMETRIC NEW DIRECT SPARSE SOLVER RUNNING ON
 	1 HOST x 1 MPI RANK PER HOST x 8 THREADS PER RANK
        NUMBER OF EQUATIONS:  128871
        NUMBER OF RHS:        1
        NUMBER OF FLOPS:      4.927e+10
        SOLVER ELAPSED TIME:  499ms

               CONVERGENCE CHECKS FOR EQUILIBRIUM ITERATION     2


 AVERAGE FORCE                       3.81       TIME AVG. FORCE        2.15    
 LARGEST SCALED RESIDUAL FORCE     -2.357E-03   AT NODE      35514   DOF  2
   INSTANCE: CHD2-M-1                                                                        
  CORRESPONDING RESIDUAL FORCE     -2.357E-03
 LARGEST INCREMENT OF DISP.         1.900E-05   AT NODE       1838   DOF  2
   INSTANCE: CHD2-M-1                                                                        
 LARGEST CORRECTION TO DISP.        2.040E-08   AT NODE       5605   DOF  2
   INSTANCE: CHD2-M-1                                                                        
          THE FORCE     EQUILIBRIUM EQUATIONS HAVE CONVERGED

 ITERATION SUMMARY FOR THE INCREMENT:   2 TOTAL ITERATIONS, OF WHICH
   0 ARE SEVERE DISCONTINUITY ITERATIONS AND  2 ARE EQUILIBRIUM ITERATIONS.

 TIME INCREMENT COMPLETED   10.0    ,  FRACTION OF STEP COMPLETED  0.440    
 STEP TIME COMPLETED        440.    ,  TOTAL TIME COMPLETED         440.    


  INCREMENT    45 STARTS. ATTEMPT NUMBER  1, TIME INCREMENT   10.0    
 
	SYMMETRIC NEW DIRECT SPARSE SOLVER RUNNING ON
 	1 HOST x 1 MPI RANK PER HOST x 8 THREADS PER RANK
        NUMBER OF EQUATIONS:  128871
        NUMBER OF RHS:        1
        NUMBER OF FLOPS:      4.927e+10
        SOLVER ELAPSED TIME:  511ms

               CONVERGENCE CHECKS FOR EQUILIBRIUM ITERATION     1


 AVERAGE FORCE                       3.78       TIME AVG. FORCE        2.19    
 LARGEST SCALED RESIDUAL FORCE     -0.240       AT NODE       2730   DOF  3
   INSTANCE: CHD2-M-1                                                                        
  CORRESPONDING RESIDUAL FORCE     -0.240    
 LARGEST INCREMENT OF DISP.         1.900E-05   AT NODE       1838   DOF  2
   INSTANCE: CHD2-M-1                                                                        
 LARGEST CORRECTION TO DISP.        5.673E-07   AT NODE      39200   DOF  2
   INSTANCE: CHD2-M-1                                                                        
          FORCE     EQUILIBRIUM NOT ACHIEVED WITHIN TOLERANCE.
 
	SYMMETRIC NEW DIRECT SPARSE SOLVER RUNNING ON
 	1 HOST x 1 MPI RANK PER HOST x 8 THREADS PER RANK
        NUMBER OF EQUATIONS:  128871
        NUMBER OF RHS:        1
        NUMBER OF FLOPS:      4.927e+10
        SOLVER ELAPSED TIME:  501ms

               CONVERGENCE CHECKS FOR EQUILIBRIUM ITERATION     2


 AVERAGE FORCE                       3.77       TIME AVG. FORCE        2.19    
 LARGEST SCALED RESIDUAL FORCE     -1.030E-02   AT NODE      39742   DOF  2
   INSTANCE: CHD2-M-1                                                                        
  CORRESPONDING RESIDUAL FORCE     -1.030E-02
 LARGEST INCREMENT OF DISP.         1.900E-05   AT NODE       1838   DOF  2
   INSTANCE: CHD2-M-1                                                                        
 LARGEST CORRECTION TO DISP.        4.829E-08   AT NODE      39507   DOF  2
   INSTANCE: CHD2-M-1                                                                        
          THE FORCE     EQUILIBRIUM EQUATIONS HAVE CONVERGED

 ITERATION SUMMARY FOR THE INCREMENT:   2 TOTAL ITERATIONS, OF WHICH
   0 ARE SEVERE DISCONTINUITY ITERATIONS AND  2 ARE EQUILIBRIUM ITERATIONS.

 TIME INCREMENT COMPLETED   10.0    ,  FRACTION OF STEP COMPLETED  0.450    
 STEP TIME COMPLETED        450.    ,  TOTAL TIME COMPLETED         450.    


  INCREMENT    46 STARTS. ATTEMPT NUMBER  1, TIME INCREMENT   10.0    
 
	SYMMETRIC NEW DIRECT SPARSE SOLVER RUNNING ON
 	1 HOST x 1 MPI RANK PER HOST x 8 THREADS PER RANK
        NUMBER OF EQUATIONS:  128871
        NUMBER OF RHS:        1
        NUMBER OF FLOPS:      4.927e+10
        SOLVER ELAPSED TIME:  507ms

               CONVERGENCE CHECKS FOR EQUILIBRIUM ITERATION     1


 AVERAGE FORCE                       3.76       TIME AVG. FORCE        2.22    
 LARGEST SCALED RESIDUAL FORCE      -1.32       AT NODE       1463   DOF  3
[...]


 AVERAGE FORCE                       3.33       TIME AVG. FORCE        3.07    
 LARGEST SCALED RESIDUAL FORCE     -3.845E-03   AT NODE      40692   DOF  1
   INSTANCE: CHD2-M-1                                                                        
  CORRESPONDING RESIDUAL FORCE     -3.845E-03
 LARGEST INCREMENT OF DISP.         2.893E-05   AT NODE      39134   DOF  2
   INSTANCE: CHD2-M-1                                                                        
 LARGEST CORRECTION TO DISP.        5.478E-09   AT NODE      38935   DOF  1
   INSTANCE: CHD2-M-1                                                                        
          THE FORCE     EQUILIBRIUM EQUATIONS HAVE CONVERGED

 ITERATION SUMMARY FOR THE INCREMENT:   4 TOTAL ITERATIONS, OF WHICH
   0 ARE SEVERE DISCONTINUITY ITERATIONS AND  4 ARE EQUILIBRIUM ITERATIONS.

 TIME INCREMENT COMPLETED   10.0    ,  FRACTION OF STEP COMPLETED  0.960    
 STEP TIME COMPLETED        960.    ,  TOTAL TIME COMPLETED         960.    


  INCREMENT    97 STARTS. ATTEMPT NUMBER  1, TIME INCREMENT   10.0    
 
	SYMMETRIC NEW DIRECT SPARSE SOLVER RUNNING ON
 	1 HOST x 1 MPI RANK PER HOST x 8 THREADS PER RANK
        NUMBER OF EQUATIONS:  128871
        NUMBER OF RHS:        1
        NUMBER OF FLOPS:      4.927e+10
        SOLVER ELAPSED TIME:  508ms

               CONVERGENCE CHECKS FOR EQUILIBRIUM ITERATION     1


 AVERAGE FORCE                       3.27       TIME AVG. FORCE        3.08    
 LARGEST SCALED RESIDUAL FORCE      0.653       AT NODE      40043   DOF  2
   INSTANCE: CHD2-M-1                                                                        
  CORRESPONDING RESIDUAL FORCE      0.653    
 LARGEST INCREMENT OF DISP.         3.017E-05   AT NODE      39176   DOF  2
   INSTANCE: CHD2-M-1                                                                        
 LARGEST CORRECTION TO DISP.       -3.134E-06   AT NODE      38937   DOF  1
   INSTANCE: CHD2-M-1                                                                        
          FORCE     EQUILIBRIUM NOT ACHIEVED WITHIN TOLERANCE.
 
	SYMMETRIC NEW DIRECT SPARSE SOLVER RUNNING ON
 	1 HOST x 1 MPI RANK PER HOST x 8 THREADS PER RANK
        NUMBER OF EQUATIONS:  128871
        NUMBER OF RHS:        1
        NUMBER OF FLOPS:      4.927e+10
        SOLVER ELAPSED TIME:  500ms

               CONVERGENCE CHECKS FOR EQUILIBRIUM ITERATION     2


 AVERAGE FORCE                       3.27       TIME AVG. FORCE        3.08    
 LARGEST SCALED RESIDUAL FORCE      0.117       AT NODE      40622   DOF  1
   INSTANCE: CHD2-M-1                                                                        
  CORRESPONDING RESIDUAL FORCE      0.117    
 LARGEST INCREMENT OF DISP.         2.934E-05   AT NODE      39457   DOF  2
   INSTANCE: CHD2-M-1                                                                        
 LARGEST CORRECTION TO DISP.       -9.277E-07   AT NODE      38933   DOF  2
   INSTANCE: CHD2-M-1                                                                        
          FORCE     EQUILIBRIUM NOT ACHIEVED WITHIN TOLERANCE.
 
	SYMMETRIC NEW DIRECT SPARSE SOLVER RUNNING ON
 	1 HOST x 1 MPI RANK PER HOST x 8 THREADS PER RANK
        NUMBER OF EQUATIONS:  128871
        NUMBER OF RHS:        1
        NUMBER OF FLOPS:      4.927e+10
        SOLVER ELAPSED TIME:  495ms

               CONVERGENCE CHECKS FOR EQUILIBRIUM ITERATION     3


 AVERAGE FORCE                       3.27       TIME AVG. FORCE        3.08    
 LARGEST SCALED RESIDUAL FORCE      2.961E-02   AT NODE      42952   DOF  1
   INSTANCE: CHD2-M-1                                                                        
  CORRESPONDING RESIDUAL FORCE      2.961E-02
 LARGEST INCREMENT OF DISP.         2.938E-05   AT NODE      39457   DOF  2
   INSTANCE: CHD2-M-1                                                                        
 LARGEST CORRECTION TO DISP.        1.543E-07   AT NODE      38936   DOF  1
   INSTANCE: CHD2-M-1                                                                        
          FORCE     EQUILIBRIUM NOT ACHIEVED WITHIN TOLERANCE.
 
	SYMMETRIC NEW DIRECT SPARSE SOLVER RUNNING ON
 	1 HOST x 1 MPI RANK PER HOST x 8 THREADS PER RANK
        NUMBER OF EQUATIONS:  128871
        NUMBER OF RHS:        1
        NUMBER OF FLOPS:      4.927e+10
        SOLVER ELAPSED TIME:  503ms

               CONVERGENCE CHECKS FOR EQUILIBRIUM ITERATION     4


 AVERAGE FORCE                       3.27       TIME AVG. FORCE        3.08    
 LARGEST SCALED RESIDUAL FORCE      2.749E-03   AT NODE      42735   DOF  1
   INSTANCE: CHD2-M-1                                                                        
  CORRESPONDING RESIDUAL FORCE      2.749E-03
 LARGEST INCREMENT OF DISP.         2.938E-05   AT NODE      39457   DOF  2
   INSTANCE: CHD2-M-1                                                                        
 LARGEST CORRECTION TO DISP.        6.100E-09   AT NODE      38935   DOF  1
   INSTANCE: CHD2-M-1                                                                        
          THE FORCE     EQUILIBRIUM EQUATIONS HAVE CONVERGED

 ITERATION SUMMARY FOR THE INCREMENT:   4 TOTAL ITERATIONS, OF WHICH
   0 ARE SEVERE DISCONTINUITY ITERATIONS AND  4 ARE EQUILIBRIUM ITERATIONS.

 TIME INCREMENT COMPLETED   10.0    ,  FRACTION OF STEP COMPLETED  0.970    
 STEP TIME COMPLETED        970.    ,  TOTAL TIME COMPLETED         970.    


  INCREMENT    98 STARTS. ATTEMPT NUMBER  1, TIME INCREMENT   10.0    
 
	SYMMETRIC NEW DIRECT SPARSE SOLVER RUNNING ON
 	1 HOST x 1 MPI RANK PER HOST x 8 THREADS PER RANK
        NUMBER OF EQUATIONS:  128871
        NUMBER OF RHS:        1
        NUMBER OF FLOPS:      4.927e+10
        SOLVER ELAPSED TIME:  499ms

               CONVERGENCE CHECKS FOR EQUILIBRIUM ITERATION     1


 AVERAGE FORCE                       3.20       TIME AVG. FORCE        3.08    
 LARGEST SCALED RESIDUAL FORCE       1.19       AT NODE      39237   DOF  1
   INSTANCE: CHD2-M-1                                                                        
  CORRESPONDING RESIDUAL FORCE       1.19    
 LARGEST INCREMENT OF DISP.         3.071E-05   AT NODE      39176   DOF  2
   INSTANCE: CHD2-M-1                                                                        
 LARGEST CORRECTION TO DISP.       -3.136E-06   AT NODE      38908   DOF  1
   INSTANCE: CHD2-M-1                                                                        
          FORCE     EQUILIBRIUM NOT ACHIEVED WITHIN TOLERANCE.
 
	SYMMETRIC NEW DIRECT SPARSE SOLVER RUNNING ON
 	1 HOST x 1 MPI RANK PER HOST x 8 THREADS PER RANK
        NUMBER OF EQUATIONS:  128871
        NUMBER OF RHS:        1
        NUMBER OF FLOPS:      4.927e+10
        SOLVER ELAPSED TIME:  496ms

               CONVERGENCE CHECKS FOR EQUILIBRIUM ITERATION     2


 AVERAGE FORCE                       3.21       TIME AVG. FORCE        3.08    
 LARGEST SCALED RESIDUAL FORCE     -0.137       AT NODE      42396   DOF  2
   INSTANCE: CHD2-M-1                                                                        
  CORRESPONDING RESIDUAL FORCE     -0.137    
 LARGEST INCREMENT OF DISP.         2.978E-05   AT NODE      39176   DOF  2
   INSTANCE: CHD2-M-1                                                                        
 LARGEST CORRECTION TO DISP.       -9.982E-07   AT NODE      39383   DOF  2
   INSTANCE: CHD2-M-1                                                                        
          FORCE     EQUILIBRIUM NOT ACHIEVED WITHIN TOLERANCE.
 
	SYMMETRIC NEW DIRECT SPARSE SOLVER RUNNING ON
 	1 HOST x 1 MPI RANK PER HOST x 8 THREADS PER RANK
        NUMBER OF EQUATIONS:  128871
        NUMBER OF RHS:        1
        NUMBER OF FLOPS:      4.927e+10
        SOLVER ELAPSED TIME:  496ms

               CONVERGENCE CHECKS FOR EQUILIBRIUM ITERATION     3


 AVERAGE FORCE                       3.21       TIME AVG. FORCE        3.08    
 LARGEST SCALED RESIDUAL FORCE     -5.053E-02   AT NODE      39671   DOF  3
   INSTANCE: CHD2-M-1                                                                        
  CORRESPONDING RESIDUAL FORCE     -5.053E-02
 LARGEST INCREMENT OF DISP.         2.981E-05   AT NODE      39176   DOF  2
   INSTANCE: CHD2-M-1                                                                        
 LARGEST CORRECTION TO DISP.        1.853E-07   AT NODE      38936   DOF  1
   INSTANCE: CHD2-M-1                                                                        
          FORCE     EQUILIBRIUM NOT ACHIEVED WITHIN TOLERANCE.
 
	SYMMETRIC NEW DIRECT SPARSE SOLVER RUNNING ON
 	1 HOST x 1 MPI RANK PER HOST x 8 THREADS PER RANK
        NUMBER OF EQUATIONS:  128871
        NUMBER OF RHS:        1
        NUMBER OF FLOPS:      4.927e+10
        SOLVER ELAPSED TIME:  493ms

               CONVERGENCE CHECKS FOR EQUILIBRIUM ITERATION     4


 AVERAGE FORCE                       3.21       TIME AVG. FORCE        3.08    
 LARGEST SCALED RESIDUAL FORCE      2.949E-03   AT NODE      40010   DOF  2
   INSTANCE: CHD2-M-1                                                                        
  CORRESPONDING RESIDUAL FORCE      2.949E-03
 LARGEST INCREMENT OF DISP.         2.981E-05   AT NODE      39176   DOF  2
   INSTANCE: CHD2-M-1                                                                        
 LARGEST CORRECTION TO DISP.        1.012E-08   AT NODE      39112   DOF  1
   INSTANCE: CHD2-M-1                                                                        
          THE FORCE     EQUILIBRIUM EQUATIONS HAVE CONVERGED

 ITERATION SUMMARY FOR THE INCREMENT:   4 TOTAL ITERATIONS, OF WHICH
   0 ARE SEVERE DISCONTINUITY ITERATIONS AND  4 ARE EQUILIBRIUM ITERATIONS.

 TIME INCREMENT COMPLETED   10.0    ,  FRACTION OF STEP COMPLETED  0.980    
 STEP TIME COMPLETED        980.    ,  TOTAL TIME COMPLETED         980.    


  INCREMENT    99 STARTS. ATTEMPT NUMBER  1, TIME INCREMENT   10.0    
 
	SYMMETRIC NEW DIRECT SPARSE SOLVER RUNNING ON
 	1 HOST x 1 MPI RANK PER HOST x 8 THREADS PER RANK
        NUMBER OF EQUATIONS:  128871
        NUMBER OF RHS:        1
        NUMBER OF FLOPS:      4.927e+10
        SOLVER ELAPSED TIME:  502ms

               CONVERGENCE CHECKS FOR EQUILIBRIUM ITERATION     1


 AVERAGE FORCE                       3.14       TIME AVG. FORCE        3.08    
 LARGEST SCALED RESIDUAL FORCE      -1.27       AT NODE      38965   DOF  3
   INSTANCE: CHD2-M-1                                                                        
  CORRESPONDING RESIDUAL FORCE      -1.27    
 LARGEST INCREMENT OF DISP.         3.124E-05   AT NODE      38933   DOF  2
   INSTANCE: CHD2-M-1                                                                        
 LARGEST CORRECTION TO DISP.        3.169E-06   AT NODE      38854   DOF  2
   INSTANCE: CHD2-M-1                                                                        
          FORCE     EQUILIBRIUM NOT ACHIEVED WITHIN TOLERANCE.
 
	SYMMETRIC NEW DIRECT SPARSE SOLVER RUNNING ON
 	1 HOST x 1 MPI RANK PER HOST x 8 THREADS PER RANK
        NUMBER OF EQUATIONS:  128871
        NUMBER OF RHS:        1
        NUMBER OF FLOPS:      4.927e+10
        SOLVER ELAPSED TIME:  498ms

               CONVERGENCE CHECKS FOR EQUILIBRIUM ITERATION     2


 AVERAGE FORCE                       3.14       TIME AVG. FORCE        3.08    
 LARGEST SCALED RESIDUAL FORCE     -0.128       AT NODE      41339   DOF  3
   INSTANCE: CHD2-M-1                                                                        
  CORRESPONDING RESIDUAL FORCE     -0.128    
 LARGEST INCREMENT OF DISP.         3.014E-05   AT NODE      39176   DOF  2
   INSTANCE: CHD2-M-1                                                                        
 LARGEST CORRECTION TO DISP.       -1.128E-06   AT NODE      38933   DOF  2
   INSTANCE: CHD2-M-1                                                                        
          FORCE     EQUILIBRIUM NOT ACHIEVED WITHIN TOLERANCE.
 
	SYMMETRIC NEW DIRECT SPARSE SOLVER RUNNING ON
 	1 HOST x 1 MPI RANK PER HOST x 8 THREADS PER RANK
        NUMBER OF EQUATIONS:  128871
        NUMBER OF RHS:        1
        NUMBER OF FLOPS:      4.927e+10
        SOLVER ELAPSED TIME:  491ms

               CONVERGENCE CHECKS FOR EQUILIBRIUM ITERATION     3


 AVERAGE FORCE                       3.14       TIME AVG. FORCE        3.08    
 LARGEST SCALED RESIDUAL FORCE      3.525E-02   AT NODE      41724   DOF  2
   INSTANCE: CHD2-M-1                                                                        
  CORRESPONDING RESIDUAL FORCE      3.525E-02
 LARGEST INCREMENT OF DISP.         3.019E-05   AT NODE      39176   DOF  2
   INSTANCE: CHD2-M-1                                                                        
 LARGEST CORRECTION TO DISP.        2.108E-07   AT NODE      38936   DOF  1
   INSTANCE: CHD2-M-1                                                                        
          FORCE     EQUILIBRIUM NOT ACHIEVED WITHIN TOLERANCE.
 
	SYMMETRIC NEW DIRECT SPARSE SOLVER RUNNING ON
 	1 HOST x 1 MPI RANK PER HOST x 8 THREADS PER RANK
        NUMBER OF EQUATIONS:  128871
        NUMBER OF RHS:        1
        NUMBER OF FLOPS:      4.927e+10
        SOLVER ELAPSED TIME:  494ms

               CONVERGENCE CHECKS FOR EQUILIBRIUM ITERATION     4


 AVERAGE FORCE                       3.14       TIME AVG. FORCE        3.08    
 LARGEST SCALED RESIDUAL FORCE     -1.674E-03   AT NODE      41720   DOF  2
   INSTANCE: CHD2-M-1                                                                        
  CORRESPONDING RESIDUAL FORCE     -1.674E-03
 LARGEST INCREMENT OF DISP.         3.019E-05   AT NODE      39176   DOF  2
   INSTANCE: CHD2-M-1                                                                        
 LARGEST CORRECTION TO DISP.        8.099E-09   AT NODE      41171   DOF  1
   INSTANCE: CHD2-M-1                                                                        
          THE FORCE     EQUILIBRIUM EQUATIONS HAVE CONVERGED

 ITERATION SUMMARY FOR THE INCREMENT:   4 TOTAL ITERATIONS, OF WHICH
   0 ARE SEVERE DISCONTINUITY ITERATIONS AND  4 ARE EQUILIBRIUM ITERATIONS.

 TIME INCREMENT COMPLETED   10.0    ,  FRACTION OF STEP COMPLETED  0.990    
 STEP TIME COMPLETED        990.    ,  TOTAL TIME COMPLETED         990.    


  INCREMENT   100 STARTS. ATTEMPT NUMBER  1, TIME INCREMENT   10.0    
 
	SYMMETRIC NEW DIRECT SPARSE SOLVER RUNNING ON
 	1 HOST x 1 MPI RANK PER HOST x 8 THREADS PER RANK
        NUMBER OF EQUATIONS:  128871
        NUMBER OF RHS:        1
        NUMBER OF FLOPS:      4.927e+10
        SOLVER ELAPSED TIME:  506ms

               CONVERGENCE CHECKS FOR EQUILIBRIUM ITERATION     1


 AVERAGE FORCE                       3.07       TIME AVG. FORCE        3.08    
 LARGEST SCALED RESIDUAL FORCE       1.79       AT NODE      38916   DOF  1
   INSTANCE: CHD2-M-1                                                                        
  CORRESPONDING RESIDUAL FORCE       1.79    
 LARGEST INCREMENT OF DISP.         3.167E-05   AT NODE      38937   DOF  2
   INSTANCE: CHD2-M-1                                                                        
 LARGEST CORRECTION TO DISP.       -3.554E-06   AT NODE      38936   DOF  1
   INSTANCE: CHD2-M-1                                                                        
          FORCE     EQUILIBRIUM NOT ACHIEVED WITHIN TOLERANCE.
 
	SYMMETRIC NEW DIRECT SPARSE SOLVER RUNNING ON
 	1 HOST x 1 MPI RANK PER HOST x 8 THREADS PER RANK
        NUMBER OF EQUATIONS:  128871
        NUMBER OF RHS:        1
        NUMBER OF FLOPS:      4.927e+10
        SOLVER ELAPSED TIME:  492ms

               CONVERGENCE CHECKS FOR EQUILIBRIUM ITERATION     2


 AVERAGE FORCE                       3.08       TIME AVG. FORCE        3.08    
 LARGEST SCALED RESIDUAL FORCE      0.192       AT NODE      38853   DOF  1
   INSTANCE: CHD2-M-1                                                                        
  CORRESPONDING RESIDUAL FORCE      0.192    
 LARGEST INCREMENT OF DISP.         3.048E-05   AT NODE      39221   DOF  2
   INSTANCE: CHD2-M-1                                                                        
 LARGEST CORRECTION TO DISP.       -1.225E-06   AT NODE      38937   DOF  2
   INSTANCE: CHD2-M-1                                                                        
          FORCE     EQUILIBRIUM NOT ACHIEVED WITHIN TOLERANCE.
 
	SYMMETRIC NEW DIRECT SPARSE SOLVER RUNNING ON
 	1 HOST x 1 MPI RANK PER HOST x 8 THREADS PER RANK
        NUMBER OF EQUATIONS:  128871
        NUMBER OF RHS:        1
        NUMBER OF FLOPS:      4.927e+10
        SOLVER ELAPSED TIME:  499ms

               CONVERGENCE CHECKS FOR EQUILIBRIUM ITERATION     3


 AVERAGE FORCE                       3.08       TIME AVG. FORCE        3.08    
 LARGEST SCALED RESIDUAL FORCE     -6.124E-02   AT NODE      39988   DOF  1
   INSTANCE: CHD2-M-1                                                                        
  CORRESPONDING RESIDUAL FORCE     -6.124E-02
 LARGEST INCREMENT OF DISP.         3.053E-05   AT NODE      39221   DOF  2
   INSTANCE: CHD2-M-1                                                                        
 LARGEST CORRECTION TO DISP.        2.575E-07   AT NODE      38936   DOF  1
   INSTANCE: CHD2-M-1                                                                        
          FORCE     EQUILIBRIUM NOT ACHIEVED WITHIN TOLERANCE.
 
	SYMMETRIC NEW DIRECT SPARSE SOLVER RUNNING ON
 	1 HOST x 1 MPI RANK PER HOST x 8 THREADS PER RANK
        NUMBER OF EQUATIONS:  128871
        NUMBER OF RHS:        1
        NUMBER OF FLOPS:      4.927e+10
        SOLVER ELAPSED TIME:  494ms

               CONVERGENCE CHECKS FOR EQUILIBRIUM ITERATION     4


 AVERAGE FORCE                       3.08       TIME AVG. FORCE        3.08    
 LARGEST SCALED RESIDUAL FORCE     -8.764E-03   AT NODE      39953   DOF  3
   INSTANCE: CHD2-M-1                                                                        
  CORRESPONDING RESIDUAL FORCE     -8.764E-03
 LARGEST INCREMENT OF DISP.         3.053E-05   AT NODE      39221   DOF  2
   INSTANCE: CHD2-M-1                                                                        
 LARGEST CORRECTION TO DISP.        2.272E-08   AT NODE      38853   DOF  1
   INSTANCE: CHD2-M-1                                                                        
          THE FORCE     EQUILIBRIUM EQUATIONS HAVE CONVERGED

 ITERATION SUMMARY FOR THE INCREMENT:   4 TOTAL ITERATIONS, OF WHICH
   0 ARE SEVERE DISCONTINUITY ITERATIONS AND  4 ARE EQUILIBRIUM ITERATIONS.

 TIME INCREMENT COMPLETED   10.0    ,  FRACTION OF STEP COMPLETED   1.00    
 STEP TIME COMPLETED       1.000E+03,  TOTAL TIME COMPLETED        1.000E+03


          THE ANALYSIS HAS BEEN COMPLETED



     ANALYSIS SUMMARY:
     TOTAL OF        100  INCREMENTS
                       0  CUTBACKS IN AUTOMATIC INCREMENTATION
                     218  ITERATIONS INCLUDING CONTACT ITERATIONS IF PRESENT
                     218  PASSES THROUGH THE EQUATION SOLVER OF WHICH 
                     218  INVOLVE MATRIX DECOMPOSITION, INCLUDING
                       0  DECOMPOSITION(S) OF THE MASS MATRIX
                       1  REORDERING OF EQUATIONS TO MINIMIZE WAVEFRONT
                       0  ADDITIONAL RESIDUAL EVALUATIONS FOR LINE SEARCHES
                       0  ADDITIONAL OPERATOR EVALUATIONS FOR LINE SEARCHES
                       5  WARNING MESSAGES DURING USER INPUT PROCESSING
                       0  WARNING MESSAGES DURING ANALYSIS
                       0  ANALYSIS WARNINGS ARE NUMERICAL PROBLEM MESSAGES
                       0  ANALYSIS WARNINGS ARE NEGATIVE EIGENVALUE MESSAGES
                       0  ERROR MESSAGES



     JOB TIME SUMMARY
       USER TIME (SEC)      =     1.34E+03
       SYSTEM TIME (SEC)    =      20.    
       TOTAL CPU TIME (SEC) =     1.36E+03
       WALLCLOCK TIME (SEC) =          314
       MEMORY PEAK (GB)     =            0
