1

   Abaqus 2023.HF4                                  Date 21-May-2024   Time 15:16:00
   For use by AALTO UNIVERSITY under license from Dassault Systemes or its subsidiary.

                                                                                 
                                                                                 
 STEP    1     INCREMENT     1     STEP TIME    0.00    


                        S T E P       1     C O U P L E D - T E M P E R A T U R E - D I S P L A C E M E N T   A N A L Y S I S


                                                                                          

          FIXED TIME INCREMENTS
          TIME INCREMENT IS                                    1.000E+03
          TIME PERIOD IS                                       1.000E+05

          CREEP AND SWELLING EFFECTS ARE OMITTED IN THIS STEP
          THE RATE DEPENDENCY WILL BE CONSIDERED IN THIS STEP

          CREEP AND SWELLING EFFECTS WILL BE IGNORED.

 CONVERGENCE TOLERANCE PARAMETERS FOR FORCE    
     CRITERION FOR RESIDUAL FORCE     FOR A NONLINEAR PROBLEM          5.000E-03
     CRITERION FOR DISP.    CORRECTION IN A NONLINEAR PROBLEM          1.000E-02
     INITIAL VALUE OF TIME AVERAGE FORCE                               1.000E-02
     AVERAGE FORCE     IS TIME AVERAGE FORCE    
     ALTERNATE CRIT. FOR RESIDUAL FORCE     FOR A NONLINEAR PROBLEM    2.000E-02
     CRITERION FOR ZERO FORCE     RELATIVE TO TIME AVRG. FORCE         1.000E-05
     CRITERION FOR RESIDUAL FORCE     WHEN THERE IS ZERO FLUX          1.000E-05
     CRITERION FOR DISP.    CORRECTION WHEN THERE IS ZERO FLUX         1.000E-03
     CRITERION FOR RESIDUAL FORCE     FOR A LINEAR INCREMENT           1.000E-08
     FIELD CONVERSION RATIO                                             1.00    
     CRITERION FOR ZERO FORCE     REL. TO TIME AVRG. MAX. FORCE        1.000E-05
     CRITERION FOR ZERO DISP.    RELATIVE TO CHARACTERISTIC LENGTH     1.000E-08

 CONVERGENCE TOLERANCE PARAMETERS FOR HEAT FLUX
     CRITERION FOR RESIDUAL HEAT FLUX FOR A NONLINEAR PROBLEM          5.000E-03
     CRITERION FOR TEMP.    CORRECTION IN A NONLINEAR PROBLEM          1.000E-02
     INITIAL VALUE OF TIME AVERAGE HEAT FLUX                           1.000E-02
     AVERAGE HEAT FLUX IS TIME AVERAGE HEAT FLUX
     ALTERNATE CRIT. FOR RESIDUAL HEAT FLUX FOR A NONLINEAR PROBLEM    2.000E-02
     CRITERION FOR ZERO HEAT FLUX RELATIVE TO TIME AVRG. HEAT FLUX     1.000E-05
     CRITERION FOR RESIDUAL HEAT FLUX WHEN THERE IS ZERO FLUX          1.000E-05
     CRITERION FOR TEMP.    CORRECTION WHEN THERE IS ZERO FLUX         1.000E-03
     CRITERION FOR RESIDUAL HEAT FLUX FOR A LINEAR INCREMENT           1.000E-08
     FIELD CONVERSION RATIO                                             1.00    
     CRITERION FOR ZERO HEAT FLUX REL. TO TIME AVRG. MAX. HEAT FLUX    1.000E-05

     VOLUMETRIC STRAIN COMPATIBILITY TOLERANCE FOR HYBRID SOLIDS       1.000E-05
     AXIAL STRAIN COMPATIBILITY TOLERANCE FOR HYBRID BEAMS             1.000E-05
     TRANS. SHEAR STRAIN COMPATIBILITY TOLERANCE FOR HYBRID BEAMS      1.000E-05
     SOFT CONTACT CONSTRAINT COMPATIBILITY TOLERANCE FOR P>P0          5.000E-03
     SOFT CONTACT CONSTRAINT COMPATIBILITY TOLERANCE FOR P=0.0         0.100    
     CONTACT FORCE ERROR TOLERANCE FOR CONVERT SDI=YES                 1.00    
     DISPLACEMENT COMPATIBILITY TOLERANCE FOR DCOUP ELEMENTS           1.000E-05
     ROTATION COMPATIBILITY TOLERANCE FOR DCOUP ELEMENTS               1.000E-05

 EQUILIBRIUM WILL BE CHECKED FOR SEVERE DISCONTINUITY ITERATIONS

 ITERATION CONTROL PARAMETERS:
     FIRST EQUILIBRIUM ITERATION FOR CONSECUTIVE DIVERGENCE CHECK              4
     EQUILIBRIUM ITERATION AFTER WHICH ALTERNATE RESIDUAL IS USED              9
     MAXIMUM EQUILIBRIUM ITERATIONS ALLOWED                                   16
     MAXIMUM ITERATIONS FOR SEVERE DISCONTINUITIES                            12
     GLOBAL STABILIZATION CONTROL IS NOT USED

          PRINT OF INCREMENT NUMBER, TIME, ETC., EVERY    1  INCREMENTS

     THE MAXIMUM NUMBER OF INCREMENTS IN THIS STEP IS                    1000

          LARGE DISPLACEMENT THEORY WILL BE USED

          UNSYMMETRIC MATRIX STORAGE AND SOLUTION WILL BE USED

     LINEAR EXTRAPOLATION WILL BE USED

     CHARACTERISTIC ELEMENT LENGTH     8.388E-04

     DETAILS REGARDING ACTUAL SOLUTION WAVEFRONT REQUESTED

     DETAILED OUTPUT OF DIAGNOSTICS TO DATABASE REQUESTED

     PRINT OF INCREMENT NUMBER, TIME, ETC., TO THE MESSAGE FILE EVERY     1  INCREMENTS

     ELEMENT OPERATIONS WILL BE CARRIED OUT IN PARALLEL USING   4 THREADS ON 1 DOMAIN

     PARALLEL CONTACT TRACKING ENABLED


     COLLECTING MODEL CONSTRAINT INFORMATION FOR OVERCONSTRAINT CHECKS

     COLLECTING STEP CONSTRAINT INFORMATION FOR OVERCONSTRAINT CHECKS


  INCREMENT     1 STARTS. ATTEMPT NUMBER  1, TIME INCREMENT  1.000E+03
 
     INITIAL ELEMENT LOAD BALANCE
            DOMAIN    1     THREAD    NUMBER OF ELEMENTS
                              1            1240
                              2            1176
                              3            856
                              4            1225
 
	UNSYMMETRIC NEW DIRECT SPARSE SOLVER RUNNING ON
 	1 HOST x 1 MPI RANK PER HOST x 4 THREADS PER RANK
        NUMBER OF EQUATIONS:  32172
        NUMBER OF RHS:        1
        NUMBER OF FLOPS:      1.373e+09
        SOLVER ELAPSED TIME:  31ms

 ***WARNING: SOLVER PROBLEM.  ZERO PIVOT WHEN PROCESSING NODE 589 INSTANCE 
             ELASTIC-PLASTIC-PLATE-1 D.O.F. 11
  Typically a zero pivot is associated with an overconstraint in the model. 
 However, Abaqus was not able to identify any chains of constraints that might 
 lead to an overconstraint at this node. This suggests that the model might be 
 in fact insufficiently constrained in this particular degree of freedom. 
 Please check the constraints used in this model. 


 ***WARNING: SOLVER PROBLEM.  ZERO PIVOT WHEN PROCESSING NODE 528 INSTANCE 
             ELASTIC-PLASTIC-PLATE-1 D.O.F. 11
  Typically a zero pivot is associated with an overconstraint in the model. 
 However, Abaqus was not able to identify any chains of constraints that might 
 lead to an overconstraint at this node. This suggests that the model might be 
 in fact insufficiently constrained in this particular degree of freedom. 
 Please check the constraints used in this model. 


 ***WARNING: SOLVER PROBLEM.  ZERO PIVOT WHEN PROCESSING NODE 587 INSTANCE 
             ELASTIC-PLASTIC-PLATE-1 D.O.F. 11
  Typically a zero pivot is associated with an overconstraint in the model. 
 However, Abaqus was not able to identify any chains of constraints that might 
 lead to an overconstraint at this node. This suggests that the model might be 
 in fact insufficiently constrained in this particular degree of freedom. 
 Please check the constraints used in this model. 


 ***WARNING: SOLVER PROBLEM.  ZERO PIVOT WHEN PROCESSING NODE 588 INSTANCE 
             ELASTIC-PLASTIC-PLATE-1 D.O.F. 11
  Typically a zero pivot is associated with an overconstraint in the model. 
 However, Abaqus was not able to identify any chains of constraints that might 
 lead to an overconstraint at this node. This suggests that the model might be 
 in fact insufficiently constrained in this particular degree of freedom. 
 Please check the constraints used in this model. 


 ***WARNING: SOLVER PROBLEM.  ZERO PIVOT WHEN PROCESSING NODE 531 INSTANCE 
             ELASTIC-PLASTIC-PLATE-1 D.O.F. 11
  Typically a zero pivot is associated with an overconstraint in the model. 
 However, Abaqus was not able to identify any chains of constraints that might 
 lead to an overconstraint at this node. This suggests that the model might be 
 in fact insufficiently constrained in this particular degree of freedom. 
 Please check the constraints used in this model. 


 ***WARNING: SOLVER PROBLEM.  ZERO PIVOT WHEN PROCESSING NODE 590 INSTANCE 
             ELASTIC-PLASTIC-PLATE-1 D.O.F. 11
  Typically a zero pivot is associated with an overconstraint in the model. 
 However, Abaqus was not able to identify any chains of constraints that might 
 lead to an overconstraint at this node. This suggests that the model might be 
 in fact insufficiently constrained in this particular degree of freedom. 
 Please check the constraints used in this model. 


 ***WARNING: SOLVER PROBLEM.  ZERO PIVOT WHEN PROCESSING NODE 529 INSTANCE 
             ELASTIC-PLASTIC-PLATE-1 D.O.F. 11
  Typically a zero pivot is associated with an overconstraint in the model. 
 However, Abaqus was not able to identify any chains of constraints that might 
 lead to an overconstraint at this node. This suggests that the model might be 
 in fact insufficiently constrained in this particular degree of freedom. 
 Please check the constraints used in this model. 


 ***WARNING: SOLVER PROBLEM.  ZERO PIVOT WHEN PROCESSING NODE 530 INSTANCE 
             ELASTIC-PLASTIC-PLATE-1 D.O.F. 11
  Typically a zero pivot is associated with an overconstraint in the model. 
 However, Abaqus was not able to identify any chains of constraints that might 
 lead to an overconstraint at this node. This suggests that the model might be 
 in fact insufficiently constrained in this particular degree of freedom. 
 Please check the constraints used in this model. 


 ***WARNING: SOLVER PROBLEM.  ZERO PIVOT WHEN PROCESSING NODE 410 INSTANCE 
             ELASTIC-PLASTIC-PLATE-1 D.O.F. 11
  Typically a zero pivot is associated with an overconstraint in the model. 
 However, Abaqus was not able to identify any chains of constraints that might 
 lead to an overconstraint at this node. This suggests that the model might be 
 in fact insufficiently constrained in this particular degree of freedom. 
 Please check the constraints used in this model. 


 ***WARNING: SOLVER PROBLEM.  ZERO PIVOT WHEN PROCESSING NODE 469 INSTANCE 
             ELASTIC-PLASTIC-PLATE-1 D.O.F. 11
  Typically a zero pivot is associated with an overconstraint in the model. 
 However, Abaqus was not able to identify any chains of constraints that might 
 lead to an overconstraint at this node. This suggests that the model might be 
 in fact insufficiently constrained in this particular degree of freedom. 
 Please check the constraints used in this model. 


 ***WARNING: SOLVER PROBLEM.  ZERO PIVOT WHEN PROCESSING NODE 470 INSTANCE 
             ELASTIC-PLASTIC-PLATE-1 D.O.F. 11
  Typically a zero pivot is associated with an overconstraint in the model. 
 However, Abaqus was not able to identify any chains of constraints that might 
 lead to an overconstraint at this node. This suggests that the model might be 
 in fact insufficiently constrained in this particular degree of freedom. 
 Please check the constraints used in this model. 


 ***WARNING: SOLVER PROBLEM.  ZERO PIVOT WHEN PROCESSING NODE 413 INSTANCE 
             ELASTIC-PLASTIC-PLATE-1 D.O.F. 11
  Typically a zero pivot is associated with an overconstraint in the model. 
 However, Abaqus was not able to identify any chains of constraints that might 
 lead to an overconstraint at this node. This suggests that the model might be 
 in fact insufficiently constrained in this particular degree of freedom. 
 Please check the constraints used in this model. 


 ***WARNING: SOLVER PROBLEM.  ZERO PIVOT WHEN PROCESSING NODE 471 INSTANCE 
             ELASTIC-PLASTIC-PLATE-1 D.O.F. 11
  Typically a zero pivot is associated with an overconstraint in the model. 
 However, Abaqus was not able to identify any chains of constraints that might 
 lead to an overconstraint at this node. This suggests that the model might be 
 in fact insufficiently constrained in this particular degree of freedom. 
 Please check the constraints used in this model. 


 ***WARNING: SOLVER PROBLEM.  ZERO PIVOT WHEN PROCESSING NODE 472 INSTANCE 
             ELASTIC-PLASTIC-PLATE-1 D.O.F. 11
  Typically a zero pivot is associated with an overconstraint in the model. 
 However, Abaqus was not able to identify any chains of constraints that might 
 lead to an overconstraint at this node. This suggests that the model might be 
 in fact insufficiently constrained in this particular degree of freedom. 
 Please check the constraints used in this model. 


 ***WARNING: SOLVER PROBLEM.  ZERO PIVOT WHEN PROCESSING NODE 411 INSTANCE 
             ELASTIC-PLASTIC-PLATE-1 D.O.F. 11
  Typically a zero pivot is associated with an overconstraint in the model. 
 However, Abaqus was not able to identify any chains of constraints that might 
 lead to an overconstraint at this node. This suggests that the model might be 
 in fact insufficiently constrained in this particular degree of freedom. 
 Please check the constraints used in this model. 


 ***WARNING: SOLVER PROBLEM.  ZERO PIVOT WHEN PROCESSING NODE 412 INSTANCE 
             ELASTIC-PLASTIC-PLATE-1 D.O.F. 11
  Typically a zero pivot is associated with an overconstraint in the model. 
 However, Abaqus was not able to identify any chains of constraints that might 
 lead to an overconstraint at this node. This suggests that the model might be 
 in fact insufficiently constrained in this particular degree of freedom. 
 Please check the constraints used in this model. 


 ***WARNING: SOLVER PROBLEM.  ZERO PIVOT WHEN PROCESSING NODE 353 INSTANCE 
             ELASTIC-PLASTIC-PLATE-1 D.O.F. 11
  Typically a zero pivot is associated with an overconstraint in the model. 
 However, Abaqus was not able to identify any chains of constraints that might 
 lead to an overconstraint at this node. This suggests that the model might be 
 in fact insufficiently constrained in this particular degree of freedom. 
 Please check the constraints used in this model. 


 ***WARNING: SOLVER PROBLEM.  ZERO PIVOT WHEN PROCESSING NODE 4063 INSTANCE 
             ELASTIC-PLASTIC-PLATE-1 D.O.F. 11
  Typically a zero pivot is associated with an overconstraint in the model. 
 However, Abaqus was not able to identify any chains of constraints that might 
 lead to an overconstraint at this node. This suggests that the model might be 
 in fact insufficiently constrained in this particular degree of freedom. 
 Please check the constraints used in this model. 


 ***WARNING: SOLVER PROBLEM.  ZERO PIVOT WHEN PROCESSING NODE 26 INSTANCE 
             ELASTIC-PLASTIC-PLATE-1 D.O.F. 11
  Typically a zero pivot is associated with an overconstraint in the model. 
 However, Abaqus was not able to identify any chains of constraints that might 
 lead to an overconstraint at this node. This suggests that the model might be 
 in fact insufficiently constrained in this particular degree of freedom. 
 Please check the constraints used in this model. 


 ***WARNING: SOLVER PROBLEM.  ZERO PIVOT WHEN PROCESSING NODE 354 INSTANCE 
             ELASTIC-PLASTIC-PLATE-1 D.O.F. 11
  Typically a zero pivot is associated with an overconstraint in the model. 
 However, Abaqus was not able to identify any chains of constraints that might 
 lead to an overconstraint at this node. This suggests that the model might be 
 in fact insufficiently constrained in this particular degree of freedom. 
 Please check the constraints used in this model. 


 ***WARNING: SOLVER PROBLEM.  ZERO PIVOT WHEN PROCESSING NODE 23 INSTANCE 
             ELASTIC-PLASTIC-PLATE-1 D.O.F. 11
  Typically a zero pivot is associated with an overconstraint in the model. 
 However, Abaqus was not able to identify any chains of constraints that might 
 lead to an overconstraint at this node. This suggests that the model might be 
 in fact insufficiently constrained in this particular degree of freedom. 
 Please check the constraints used in this model. 


 ***WARNING: SOLVER PROBLEM.  ZERO PIVOT WHEN PROCESSING NODE 3971 INSTANCE 
             ELASTIC-PLASTIC-PLATE-1 D.O.F. 11
  Typically a zero pivot is associated with an overconstraint in the model. 
 However, Abaqus was not able to identify any chains of constraints that might 
 lead to an overconstraint at this node. This suggests that the model might be 
 in fact insufficiently constrained in this particular degree of freedom. 
 Please check the constraints used in this model. 


 ***WARNING: SOLVER PROBLEM.  ZERO PIVOT WHEN PROCESSING NODE 4027 INSTANCE 
             ELASTIC-PLASTIC-PLATE-1 D.O.F. 11
  Typically a zero pivot is associated with an overconstraint in the model. 
 However, Abaqus was not able to identify any chains of constraints that might 
 lead to an overconstraint at this node. This suggests that the model might be 
 in fact insufficiently constrained in this particular degree of freedom. 
 Please check the constraints used in this model. 


 ***WARNING: SOLVER PROBLEM.  ZERO PIVOT WHEN PROCESSING NODE 4050 INSTANCE 
             ELASTIC-PLASTIC-PLATE-1 D.O.F. 11
  Typically a zero pivot is associated with an overconstraint in the model. 
 However, Abaqus was not able to identify any chains of constraints that might 
 lead to an overconstraint at this node. This suggests that the model might be 
 in fact insufficiently constrained in this particular degree of freedom. 
 Please check the constraints used in this model. 


 ***WARNING: SOLVER PROBLEM.  ZERO PIVOT WHEN PROCESSING NODE 2348 INSTANCE 
             ELASTIC-PLASTIC-PLATE-1 D.O.F. 11
  Typically a zero pivot is associated with an overconstraint in the model. 
 However, Abaqus was not able to identify any chains of constraints that might 
 lead to an overconstraint at this node. This suggests that the model might be 
 in fact insufficiently constrained in this particular degree of freedom. 
 Please check the constraints used in this model. 


 ***WARNING: SOLVER PROBLEM.  ZERO PIVOT WHEN PROCESSING NODE 3989 INSTANCE 
             ELASTIC-PLASTIC-PLATE-1 D.O.F. 11
  Typically a zero pivot is associated with an overconstraint in the model. 
 However, Abaqus was not able to identify any chains of constraints that might 
 lead to an overconstraint at this node. This suggests that the model might be 
 in fact insufficiently constrained in this particular degree of freedom. 
 Please check the constraints used in this model. 


 ***WARNING: SOLVER PROBLEM.  ZERO PIVOT WHEN PROCESSING NODE 4309 INSTANCE 
             ELASTIC-PLASTIC-PLATE-1 D.O.F. 11
  Typically a zero pivot is associated with an overconstraint in the model. 
 However, Abaqus was not able to identify any chains of constraints that might 
 lead to an overconstraint at this node. This suggests that the model might be 
 in fact insufficiently constrained in this particular degree of freedom. 
 Please check the constraints used in this model. 


 ***WARNING: SOLVER PROBLEM.  ZERO PIVOT WHEN PROCESSING NODE 24 INSTANCE 
             ELASTIC-PLASTIC-PLATE-1 D.O.F. 11
  Typically a zero pivot is associated with an overconstraint in the model. 
 However, Abaqus was not able to identify any chains of constraints that might 
 lead to an overconstraint at this node. This suggests that the model might be 
 in fact insufficiently constrained in this particular degree of freedom. 
 Please check the constraints used in this model. 


 ***WARNING: SOLVER PROBLEM.  ZERO PIVOT WHEN PROCESSING NODE 25 INSTANCE 
             ELASTIC-PLASTIC-PLATE-1 D.O.F. 11
  Typically a zero pivot is associated with an overconstraint in the model. 
 However, Abaqus was not able to identify any chains of constraints that might 
 lead to an overconstraint at this node. This suggests that the model might be 
 in fact insufficiently constrained in this particular degree of freedom. 
 Please check the constraints used in this model. 


 ***WARNING: SOLVER PROBLEM.  ZERO PIVOT WHEN PROCESSING NODE 351 INSTANCE 
             ELASTIC-PLASTIC-PLATE-1 D.O.F. 11
  Typically a zero pivot is associated with an overconstraint in the model. 
 However, Abaqus was not able to identify any chains of constraints that might 
 lead to an overconstraint at this node. This suggests that the model might be 
 in fact insufficiently constrained in this particular degree of freedom. 
 Please check the constraints used in this model. 


 ***WARNING: SOLVER PROBLEM.  ZERO PIVOT WHEN PROCESSING NODE 352 INSTANCE 
             ELASTIC-PLASTIC-PLATE-1 D.O.F. 11
  Typically a zero pivot is associated with an overconstraint in the model. 
 However, Abaqus was not able to identify any chains of constraints that might 
 lead to an overconstraint at this node. This suggests that the model might be 
 in fact insufficiently constrained in this particular degree of freedom. 
 Please check the constraints used in this model. 


 ***WARNING: SOLVER PROBLEM.  ZERO PIVOT WHEN PROCESSING NODE 2349 INSTANCE 
             ELASTIC-PLASTIC-PLATE-1 D.O.F. 11
  Typically a zero pivot is associated with an overconstraint in the model. 
 However, Abaqus was not able to identify any chains of constraints that might 
 lead to an overconstraint at this node. This suggests that the model might be 
 in fact insufficiently constrained in this particular degree of freedom. 
 Please check the constraints used in this model. 


 ***WARNING: SOLVER PROBLEM.  ZERO PIVOT WHEN PROCESSING NODE 4025 INSTANCE 
             ELASTIC-PLASTIC-PLATE-1 D.O.F. 11
  Typically a zero pivot is associated with an overconstraint in the model. 
 However, Abaqus was not able to identify any chains of constraints that might 
 lead to an overconstraint at this node. This suggests that the model might be 
 in fact insufficiently constrained in this particular degree of freedom. 
 Please check the constraints used in this model. 


 ***WARNING: SOLVER PROBLEM.  ZERO PIVOT WHEN PROCESSING NODE 4041 INSTANCE 
             ELASTIC-PLASTIC-PLATE-1 D.O.F. 11
  Typically a zero pivot is associated with an overconstraint in the model. 
 However, Abaqus was not able to identify any chains of constraints that might 
 lead to an overconstraint at this node. This suggests that the model might be 
 in fact insufficiently constrained in this particular degree of freedom. 
 Please check the constraints used in this model. 


 ***WARNING: SOLVER PROBLEM.  ZERO PIVOT WHEN PROCESSING NODE 4096 INSTANCE 
             ELASTIC-PLASTIC-PLATE-1 D.O.F. 11
  Typically a zero pivot is associated with an overconstraint in the model. 
 However, Abaqus was not able to identify any chains of constraints that might 
 lead to an overconstraint at this node. This suggests that the model might be 
 in fact insufficiently constrained in this particular degree of freedom. 
 Please check the constraints used in this model. 


 ***WARNING: SOLVER PROBLEM.  ZERO PIVOT WHEN PROCESSING NODE 28 INSTANCE 
             ELASTIC-PLASTIC-PLATE-1 D.O.F. 11
  Typically a zero pivot is associated with an overconstraint in the model. 
 However, Abaqus was not able to identify any chains of constraints that might 
 lead to an overconstraint at this node. This suggests that the model might be 
 in fact insufficiently constrained in this particular degree of freedom. 
 Please check the constraints used in this model. 


 ***WARNING: SOLVER PROBLEM.  ZERO PIVOT WHEN PROCESSING NODE 31 INSTANCE 
             ELASTIC-PLASTIC-PLATE-1 D.O.F. 11
  Typically a zero pivot is associated with an overconstraint in the model. 
 However, Abaqus was not able to identify any chains of constraints that might 
 lead to an overconstraint at this node. This suggests that the model might be 
 in fact insufficiently constrained in this particular degree of freedom. 
 Please check the constraints used in this model. 


 ***WARNING: SOLVER PROBLEM.  ZERO PIVOT WHEN PROCESSING NODE 30 INSTANCE 
             ELASTIC-PLASTIC-PLATE-1 D.O.F. 11
  Typically a zero pivot is associated with an overconstraint in the model. 
 However, Abaqus was not able to identify any chains of constraints that might 
 lead to an overconstraint at this node. This suggests that the model might be 
 in fact insufficiently constrained in this particular degree of freedom. 
 Please check the constraints used in this model. 


 ***WARNING: SOLVER PROBLEM.  ZERO PIVOT WHEN PROCESSING NODE 29 INSTANCE 
             ELASTIC-PLASTIC-PLATE-1 D.O.F. 11
  Typically a zero pivot is associated with an overconstraint in the model. 
 However, Abaqus was not able to identify any chains of constraints that might 
 lead to an overconstraint at this node. This suggests that the model might be 
 in fact insufficiently constrained in this particular degree of freedom. 
 Please check the constraints used in this model. 


 ***WARNING: SOLVER PROBLEM.  ZERO PIVOT WHEN PROCESSING NODE 359 INSTANCE 
             ELASTIC-PLASTIC-PLATE-1 D.O.F. 11
  Typically a zero pivot is associated with an overconstraint in the model. 
 However, Abaqus was not able to identify any chains of constraints that might 
 lead to an overconstraint at this node. This suggests that the model might be 
 in fact insufficiently constrained in this particular degree of freedom. 
 Please check the constraints used in this model. 


 ***WARNING: SOLVER PROBLEM.  ZERO PIVOT WHEN PROCESSING NODE 592 INSTANCE 
             ELASTIC-PLASTIC-PLATE-1 D.O.F. 11
  Typically a zero pivot is associated with an overconstraint in the model. 
 However, Abaqus was not able to identify any chains of constraints that might 
 lead to an overconstraint at this node. This suggests that the model might be 
 in fact insufficiently constrained in this particular degree of freedom. 
 Please check the constraints used in this model. 


 ***WARNING: SOLVER PROBLEM.  ZERO PIVOT WHEN PROCESSING NODE 593 INSTANCE 
             ELASTIC-PLASTIC-PLATE-1 D.O.F. 11
  Typically a zero pivot is associated with an overconstraint in the model. 
 However, Abaqus was not able to identify any chains of constraints that might 
 lead to an overconstraint at this node. This suggests that the model might be 
 in fact insufficiently constrained in this particular degree of freedom. 
 Please check the constraints used in this model. 


 ***WARNING: SOLVER PROBLEM.  ZERO PIVOT WHEN PROCESSING NODE 536 INSTANCE 
             ELASTIC-PLASTIC-PLATE-1 D.O.F. 11
  Typically a zero pivot is associated with an overconstraint in the model. 
 However, Abaqus was not able to identify any chains of constraints that might 
 lead to an overconstraint at this node. This suggests that the model might be 
 in fact insufficiently constrained in this particular degree of freedom. 
 Please check the constraints used in this model. 


 ***WARNING: SOLVER PROBLEM.  ZERO PIVOT WHEN PROCESSING NODE 594 INSTANCE 
             ELASTIC-PLASTIC-PLATE-1 D.O.F. 11
  Typically a zero pivot is associated with an overconstraint in the model. 
 However, Abaqus was not able to identify any chains of constraints that might 
 lead to an overconstraint at this node. This suggests that the model might be 
 in fact insufficiently constrained in this particular degree of freedom. 
 Please check the constraints used in this model. 


 ***WARNING: SOLVER PROBLEM.  ZERO PIVOT WHEN PROCESSING NODE 595 INSTANCE 
             ELASTIC-PLASTIC-PLATE-1 D.O.F. 11
  Typically a zero pivot is associated with an overconstraint in the model. 
 However, Abaqus was not able to identify any chains of constraints that might 
 lead to an overconstraint at this node. This suggests that the model might be 
 in fact insufficiently constrained in this particular degree of freedom. 
 Please check the constraints used in this model. 


 ***WARNING: SOLVER PROBLEM.  ZERO PIVOT WHEN PROCESSING NODE 533 INSTANCE 
             ELASTIC-PLASTIC-PLATE-1 D.O.F. 11
  Typically a zero pivot is associated with an overconstraint in the model. 
 However, Abaqus was not able to identify any chains of constraints that might 
 lead to an overconstraint at this node. This suggests that the model might be 
 in fact insufficiently constrained in this particular degree of freedom. 
 Please check the constraints used in this model. 


 ***WARNING: SOLVER PROBLEM.  ZERO PIVOT WHEN PROCESSING NODE 534 INSTANCE 
             ELASTIC-PLASTIC-PLATE-1 D.O.F. 11
  Typically a zero pivot is associated with an overconstraint in the model. 
 However, Abaqus was not able to identify any chains of constraints that might 
 lead to an overconstraint at this node. This suggests that the model might be 
 in fact insufficiently constrained in this particular degree of freedom. 
 Please check the constraints used in this model. 


 ***WARNING: SOLVER PROBLEM.  ZERO PIVOT WHEN PROCESSING NODE 535 INSTANCE 
             ELASTIC-PLASTIC-PLATE-1 D.O.F. 11
  Typically a zero pivot is associated with an overconstraint in the model. 
 However, Abaqus was not able to identify any chains of constraints that might 
 lead to an overconstraint at this node. This suggests that the model might be 
 in fact insufficiently constrained in this particular degree of freedom. 
 Please check the constraints used in this model. 


 ***WARNING: SOLVER PROBLEM.  ZERO PIVOT WHEN PROCESSING NODE 415 INSTANCE 
             ELASTIC-PLASTIC-PLATE-1 D.O.F. 11
  Typically a zero pivot is associated with an overconstraint in the model. 
 However, Abaqus was not able to identify any chains of constraints that might 
 lead to an overconstraint at this node. This suggests that the model might be 
 in fact insufficiently constrained in this particular degree of freedom. 
 Please check the constraints used in this model. 


 ***WARNING: Solver problem. Zero pivot when processing D.O.F. 11 of 49 nodes. 
             The nodes have been identified in node set 
             WarnNodeSolvProbZeroPiv_11_1_1_1_1.

               CONVERGENCE CHECKS FOR EQUILIBRIUM ITERATION     1


 AVERAGE FORCE                      2.002E+03   TIME AVG. FORCE       2.002E+03
 LARGEST SCALED RESIDUAL FORCE       8.70       AT NODE      11631   DOF  2
   INSTANCE: ELASTIC-PLASTIC-PLATE-1                                                         
  CORRESPONDING RESIDUAL FORCE       8.70    
 LARGEST INCREMENT OF DISP.         6.053E-06   AT NODE      11703   DOF  2
   INSTANCE: ELASTIC-PLASTIC-PLATE-1                                                         
 LARGEST CORRECTION TO DISP.        6.053E-06   AT NODE      11703   DOF  2
   INSTANCE: ELASTIC-PLASTIC-PLATE-1                                                         
          DISP.    CORRECTION TOO LARGE COMPARED TO DISP.    INCREMENT

 AVERAGE HEAT FLUX                  2.677E-26   TIME AVG. HEAT FLUX   1.000E-02
 LARGEST RESIDUAL HEAT FLUX        -3.343E-25   AT NODE       2461   DOF 11
   INSTANCE: ELASTIC-PLASTIC-PLATE-1                                                         
 LARGEST INCREMENT OF TEMP.        -1.090E-15   AT NODE          5   DOF 11
   INSTANCE: ELASTIC-PLASTIC-PLATE-1                                                         
 LARGEST CORRECTION TO TEMP.       -1.090E-15   AT NODE          5   DOF 11
   INSTANCE: ELASTIC-PLASTIC-PLATE-1                                                         
          THERE IS ZERO HEAT FLUX EVERYWHERE
 

 ***WARNING: THERE IS ZERO HEAT FLUX EVERYWHERE IN THE MODEL BASED ON THE 
             DEFAULT CRITERION. PLEASE CHECK THE VALUE OF THE AVERAGE HEAT FLUX 
             DURING THE CURRENT ITERATION TO VERIFY THAT THE HEAT FLUX IS SMALL 
             ENOUGH TO BE TREATED AS ZERO. IF NOT, PLEASE USE THE SOLUTION 
             CONTROLS TO RESET THE CRITERION FOR ZERO HEAT FLUX.
 
	UNSYMMETRIC NEW DIRECT SPARSE SOLVER RUNNING ON
 	1 HOST x 1 MPI RANK PER HOST x 4 THREADS PER RANK
        NUMBER OF EQUATIONS:  32172
        NUMBER OF RHS:        1
        NUMBER OF FLOPS:      1.373e+09
        SOLVER ELAPSED TIME:  29ms

               CONVERGENCE CHECKS FOR EQUILIBRIUM ITERATION     2


 AVERAGE FORCE                      2.002E+03   TIME AVG. FORCE       2.002E+03
 LARGEST SCALED RESIDUAL FORCE      3.365E-03   AT NODE      11631   DOF  1
   INSTANCE: ELASTIC-PLASTIC-PLATE-1                                                         
  CORRESPONDING RESIDUAL FORCE      3.365E-03
 LARGEST INCREMENT OF DISP.         6.053E-06   AT NODE      11703   DOF  2
   INSTANCE: ELASTIC-PLASTIC-PLATE-1                                                         
 LARGEST CORRECTION TO DISP.        4.432E-10   AT NODE      12304   DOF  1
   INSTANCE: ELASTIC-PLASTIC-PLATE-1                                                         
          THE FORCE     EQUILIBRIUM EQUATIONS HAVE CONVERGED

 AVERAGE HEAT FLUX                  2.724E-26   TIME AVG. HEAT FLUX   1.000E-02
 LARGEST RESIDUAL HEAT FLUX        -2.487E-25   AT NODE       2728   DOF 11
   INSTANCE: ELASTIC-PLASTIC-PLATE-1                                                         
 LARGEST INCREMENT OF TEMP.        -1.422E-15   AT NODE       3110   DOF 11
   INSTANCE: ELASTIC-PLASTIC-PLATE-1                                                         
 LARGEST CORRECTION TO TEMP.        1.114E-15   AT NODE       2425   DOF 11
   INSTANCE: ELASTIC-PLASTIC-PLATE-1                                                         
          THERE IS ZERO HEAT FLUX EVERYWHERE
 

 ***WARNING: THERE IS ZERO HEAT FLUX EVERYWHERE IN THE MODEL BASED ON THE 
             DEFAULT CRITERION. PLEASE CHECK THE VALUE OF THE AVERAGE HEAT FLUX 
             DURING THE CURRENT ITERATION TO VERIFY THAT THE HEAT FLUX IS SMALL 
             ENOUGH TO BE TREATED AS ZERO. IF NOT, PLEASE USE THE SOLUTION 
             CONTROLS TO RESET THE CRITERION FOR ZERO HEAT FLUX.

 ITERATION SUMMARY FOR THE INCREMENT:   2 TOTAL ITERATIONS, OF WHICH
   0 ARE SEVERE DISCONTINUITY ITERATIONS AND  2 ARE EQUILIBRIUM ITERATIONS.

 TIME INCREMENT COMPLETED  1.000E+03,  FRACTION OF STEP COMPLETED  1.000E-02
 STEP TIME COMPLETED       1.000E+03,  TOTAL TIME COMPLETED        1.000E+03


  INCREMENT     2 STARTS. ATTEMPT NUMBER  1, TIME INCREMENT  1.000E+03
 
	UNSYMMETRIC NEW DIRECT SPARSE SOLVER RUNNING ON
 	1 HOST x 1 MPI RANK PER HOST x 4 THREADS PER RANK
        NUMBER OF EQUATIONS:  32172
        NUMBER OF RHS:        1
        NUMBER OF FLOPS:      1.373e+09
        SOLVER ELAPSED TIME:  33ms

               CONVERGENCE CHECKS FOR EQUILIBRIUM ITERATION     1


 AVERAGE FORCE                      4.031E+03   TIME AVG. FORCE       3.017E+03
 LARGEST SCALED RESIDUAL FORCE      3.823E-03   AT NODE      10351   DOF  2
   INSTANCE: ELASTIC-PLASTIC-PLATE-1                                                         
  CORRESPONDING RESIDUAL FORCE      3.823E-03
 LARGEST INCREMENT OF DISP.         6.052E-06   AT NODE      11703   DOF  2
   INSTANCE: ELASTIC-PLASTIC-PLATE-1                                                         
 LARGEST CORRECTION TO DISP.        9.727E-10   AT NODE      12304   DOF  1
   INSTANCE: ELASTIC-PLASTIC-PLATE-1                                                         
          THE FORCE     EQUILIBRIUM EQUATIONS HAVE CONVERGED

 AVERAGE HEAT FLUX                  2.087E-13   TIME AVG. HEAT FLUX   1.000E-02
 LARGEST RESIDUAL HEAT FLUX         1.064E-11   AT NODE        263   DOF 11
   INSTANCE: ELASTIC-PLASTIC-PLATE-1                                                         
 LARGEST INCREMENT OF TEMP.         7.766E-02   AT NODE          6   DOF 11
   INSTANCE: ELASTIC-PLASTIC-PLATE-1                                                         
 LARGEST CORRECTION TO TEMP.        7.766E-02   AT NODE          6   DOF 11
   INSTANCE: ELASTIC-PLASTIC-PLATE-1                                                         
          THERE IS ZERO HEAT FLUX EVERYWHERE
 

 ***WARNING: THERE IS ZERO HEAT FLUX EVERYWHERE IN THE MODEL BASED ON THE 
             DEFAULT CRITERION. PLEASE CHECK THE VALUE OF THE AVERAGE HEAT FLUX 
             DURING THE CURRENT ITERATION TO VERIFY THAT THE HEAT FLUX IS SMALL 
             ENOUGH TO BE TREATED AS ZERO. IF NOT, PLEASE USE THE SOLUTION 
             CONTROLS TO RESET THE CRITERION FOR ZERO HEAT FLUX.

 ITERATION SUMMARY FOR THE INCREMENT:   1 TOTAL ITERATIONS, OF WHICH
   0 ARE SEVERE DISCONTINUITY ITERATIONS AND  1 ARE EQUILIBRIUM ITERATIONS.

 TIME INCREMENT COMPLETED  1.000E+03,  FRACTION OF STEP COMPLETED  2.000E-02
 STEP TIME COMPLETED       2.000E+03,  TOTAL TIME COMPLETED        2.000E+03


  INCREMENT     3 STARTS. ATTEMPT NUMBER  1, TIME INCREMENT  1.000E+03
 
	UNSYMMETRIC NEW DIRECT SPARSE SOLVER RUNNING ON
 	1 HOST x 1 MPI RANK PER HOST x 4 THREADS PER RANK
        NUMBER OF EQUATIONS:  32172
        NUMBER OF RHS:        1
        NUMBER OF FLOPS:      1.373e+09
        SOLVER ELAPSED TIME:  30ms

               CONVERGENCE CHECKS FOR EQUILIBRIUM ITERATION     1


 AVERAGE FORCE                      6.046E+03   TIME AVG. FORCE       4.027E+03
 LARGEST SCALED RESIDUAL FORCE      3.371E-03   AT NODE      10353   DOF  2
   INSTANCE: ELASTIC-PLASTIC-PLATE-1                                                         
  CORRESPONDING RESIDUAL FORCE      3.371E-03
 LARGEST INCREMENT OF DISP.         6.052E-06   AT NODE      11703   DOF  2
   INSTANCE: ELASTIC-PLASTIC-PLATE-1                                                         
 LARGEST CORRECTION TO DISP.        9.714E-10   AT NODE      12304   DOF  1
   INSTANCE: ELASTIC-PLASTIC-PLATE-1                                                         
          THE FORCE     EQUILIBRIUM EQUATIONS HAVE CONVERGED

 AVERAGE HEAT FLUX                  3.120E-13   TIME AVG. HEAT FLUX   1.000E-02
 LARGEST RESIDUAL HEAT FLUX         1.065E-11   AT NODE        263   DOF 11
   INSTANCE: ELASTIC-PLASTIC-PLATE-1                                                         
 LARGEST INCREMENT OF TEMP.         0.127       AT NODE          6   DOF 11
   INSTANCE: ELASTIC-PLASTIC-PLATE-1                                                         
 LARGEST CORRECTION TO TEMP.        4.895E-02   AT NODE          6   DOF 11
   INSTANCE: ELASTIC-PLASTIC-PLATE-1                                                         
          THERE IS ZERO HEAT FLUX EVERYWHERE
 

 ***WARNING: THERE IS ZERO HEAT FLUX EVERYWHERE IN THE MODEL BASED ON THE 
             DEFAULT CRITERION. PLEASE CHECK THE VALUE OF THE AVERAGE HEAT FLUX 
             DURING THE CURRENT ITERATION TO VERIFY THAT THE HEAT FLUX IS SMALL 
             ENOUGH TO BE TREATED AS ZERO. IF NOT, PLEASE USE THE SOLUTION 
             CONTROLS TO RESET THE CRITERION FOR ZERO HEAT FLUX.

 ITERATION SUMMARY FOR THE INCREMENT:   1 TOTAL ITERATIONS, OF WHICH
   0 ARE SEVERE DISCONTINUITY ITERATIONS AND  1 ARE EQUILIBRIUM ITERATIONS.

 TIME INCREMENT COMPLETED  1.000E+03,  FRACTION OF STEP COMPLETED  3.000E-02
 STEP TIME COMPLETED       3.000E+03,  TOTAL TIME COMPLETED        3.000E+03


  INCREMENT     4 STARTS. ATTEMPT NUMBER  1, TIME INCREMENT  1.000E+03
 
	UNSYMMETRIC NEW DIRECT SPARSE SOLVER RUNNING ON
 	1 HOST x 1 MPI RANK PER HOST x 4 THREADS PER RANK
        NUMBER OF EQUATIONS:  32172
        NUMBER OF RHS:        1
        NUMBER OF FLOPS:      1.373e+09
        SOLVER ELAPSED TIME:  31ms

               CONVERGENCE CHECKS FOR EQUILIBRIUM ITERATION     1


 AVERAGE FORCE                      8.062E+03   TIME AVG. FORCE       5.035E+03
 LARGEST SCALED RESIDUAL FORCE     -3.220E-03   AT NODE      11918   DOF  2
   INSTANCE: ELASTIC-PLASTIC-PLATE-1                                                         
  CORRESPONDING RESIDUAL FORCE     -3.220E-03
 LARGEST INCREMENT OF DISP.         6.052E-06   AT NODE      11703   DOF  2
   INSTANCE: ELASTIC-PLASTIC-PLATE-1                                                         
 LARGEST CORRECTION TO DISP.        9.706E-10   AT NODE      12304   DOF  1
   INSTANCE: ELASTIC-PLASTIC-PLATE-1                                                         
          THE FORCE     EQUILIBRIUM EQUATIONS HAVE CONVERGED

 AVERAGE HEAT FLUX                  4.150E-13   TIME AVG. HEAT FLUX   1.000E-02
 LARGEST RESIDUAL HEAT FLUX         1.068E-11   AT NODE        263   DOF 11
   INSTANCE: ELASTIC-PLASTIC-PLATE-1                                                         
 LARGEST INCREMENT OF TEMP.         0.162       AT NODE          6   DOF 11
   INSTANCE: ELASTIC-PLASTIC-PLATE-1                                                         
 LARGEST CORRECTION TO TEMP.        3.516E-02   AT NODE          6   DOF 11
   INSTANCE: ELASTIC-PLASTIC-PLATE-1                                                         
          THERE IS ZERO HEAT FLUX EVERYWHERE
 

 ***WARNING: THERE IS ZERO HEAT FLUX EVERYWHERE IN THE MODEL BASED ON THE 
             DEFAULT CRITERION. PLEASE CHECK THE VALUE OF THE AVERAGE HEAT FLUX 
             DURING THE CURRENT ITERATION TO VERIFY THAT THE HEAT FLUX IS SMALL 
             ENOUGH TO BE TREATED AS ZERO. IF NOT, PLEASE USE THE SOLUTION 
             CONTROLS TO RESET THE CRITERION FOR ZERO HEAT FLUX.

 ITERATION SUMMARY FOR THE INCREMENT:   1 TOTAL ITERATIONS, OF WHICH
   0 ARE SEVERE DISCONTINUITY ITERATIONS AND  1 ARE EQUILIBRIUM ITERATIONS.

 TIME INCREMENT COMPLETED  1.000E+03,  FRACTION OF STEP COMPLETED  4.000E-02
 STEP TIME COMPLETED       4.000E+03,  TOTAL TIME COMPLETED        4.000E+03


  INCREMENT     5 STARTS. ATTEMPT NUMBER  1, TIME INCREMENT  1.000E+03
 
	UNSYMMETRIC NEW DIRECT SPARSE SOLVER RUNNING ON
 	1 HOST x 1 MPI RANK PER HOST x 4 THREADS PER RANK
        NUMBER OF EQUATIONS:  32172
        NUMBER OF RHS:        1
        NUMBER OF FLOPS:      1.373e+09
        SOLVER ELAPSED TIME:  30ms

               CONVERGENCE CHECKS FOR EQUILIBRIUM ITERATION     1


 AVERAGE FORCE                      1.008E+04   TIME AVG. FORCE       6.044E+03
 LARGEST SCALED RESIDUAL FORCE     -4.784E-03   AT NODE      11918   DOF  2
   INSTANCE: ELASTIC-PLASTIC-PLATE-1                                                         
  CORRESPONDING RESIDUAL FORCE     -4.784E-03
 LARGEST INCREMENT OF DISP.         6.051E-06   AT NODE      11703   DOF  2
   INSTANCE: ELASTIC-PLASTIC-PLATE-1                                                         
 LARGEST CORRECTION TO DISP.        9.696E-10   AT NODE      12304   DOF  1
   INSTANCE: ELASTIC-PLASTIC-PLATE-1                                                         
          THE FORCE     EQUILIBRIUM EQUATIONS HAVE CONVERGED

 AVERAGE HEAT FLUX                  5.175E-13   TIME AVG. HEAT FLUX   1.000E-02
 LARGEST RESIDUAL HEAT FLUX         1.071E-11   AT NODE        263   DOF 11
   INSTANCE: ELASTIC-PLASTIC-PLATE-1                                                         
 LARGEST INCREMENT OF TEMP.         0.190       AT NODE          6   DOF 11
   INSTANCE: ELASTIC-PLASTIC-PLATE-1                                                         
 LARGEST CORRECTION TO TEMP.        2.780E-02   AT NODE          6   DOF 11
   INSTANCE: ELASTIC-PLASTIC-PLATE-1                                                         
          THERE IS ZERO HEAT FLUX EVERYWHERE
 

 ***WARNING: THERE IS ZERO HEAT FLUX EVERYWHERE IN THE MODEL BASED ON THE 
             DEFAULT CRITERION. PLEASE CHECK THE VALUE OF THE AVERAGE HEAT FLUX 
             DURING THE CURRENT ITERATION TO VERIFY THAT THE HEAT FLUX IS SMALL 
             ENOUGH TO BE TREATED AS ZERO. IF NOT, PLEASE USE THE SOLUTION 
             CONTROLS TO RESET THE CRITERION FOR ZERO HEAT FLUX.

 ITERATION SUMMARY FOR THE INCREMENT:   1 TOTAL ITERATIONS, OF WHICH
   0 ARE SEVERE DISCONTINUITY ITERATIONS AND  1 ARE EQUILIBRIUM ITERATIONS.

 TIME INCREMENT COMPLETED  1.000E+03,  FRACTION OF STEP COMPLETED  5.000E-02
 STEP TIME COMPLETED       5.000E+03,  TOTAL TIME COMPLETED        5.000E+03


  INCREMENT     6 STARTS. ATTEMPT NUMBER  1, TIME INCREMENT  1.000E+03
 
	UNSYMMETRIC NEW DIRECT SPARSE SOLVER RUNNING ON
 	1 HOST x 1 MPI RANK PER HOST x 4 THREADS PER RANK
        NUMBER OF EQUATIONS:  32172
        NUMBER OF RHS:        1
        NUMBER OF FLOPS:      1.373e+09
        SOLVER ELAPSED TIME:  32ms

               CONVERGENCE CHECKS FOR EQUILIBRIUM ITERATION     1


 AVERAGE FORCE                      1.209E+04   TIME AVG. FORCE       7.051E+03
 LARGEST SCALED RESIDUAL FORCE      -439.       AT NODE      12304   DOF  1
   INSTANCE: ELASTIC-PLASTIC-PLATE-1                                                         
  CORRESPONDING RESIDUAL FORCE      -439.    
 LARGEST INCREMENT OF DISP.         6.051E-06   AT NODE      11703   DOF  2
   INSTANCE: ELASTIC-PLASTIC-PLATE-1                                                         
 LARGEST CORRECTION TO DISP.        1.166E-07   AT NODE        263   DOF  2
   INSTANCE: ELASTIC-PLASTIC-PLATE-1                                                         
          FORCE     EQUILIBRIUM NOT ACHIEVED WITHIN TOLERANCE.

 AVERAGE HEAT FLUX                  6.197E-13   TIME AVG. HEAT FLUX   1.000E-02
 LARGEST RESIDUAL HEAT FLUX         1.066E-11   AT NODE        263   DOF 11
   INSTANCE: ELASTIC-PLASTIC-PLATE-1                                                         
 LARGEST INCREMENT OF TEMP.         0.211       AT NODE          6   DOF 11
   INSTANCE: ELASTIC-PLASTIC-PLATE-1                                                         
 LARGEST CORRECTION TO TEMP.        2.137E-02   AT NODE          6   DOF 11
   INSTANCE: ELASTIC-PLASTIC-PLATE-1                                                         
          THERE IS ZERO HEAT FLUX EVERYWHERE
 

 ***WARNING: THERE IS ZERO HEAT FLUX EVERYWHERE IN THE MODEL BASED ON THE 
             DEFAULT CRITERION. PLEASE CHECK THE VALUE OF THE AVERAGE HEAT FLUX 
             DURING THE CURRENT ITERATION TO VERIFY THAT THE HEAT FLUX IS SMALL 
             ENOUGH TO BE TREATED AS ZERO. IF NOT, PLEASE USE THE SOLUTION 
             CONTROLS TO RESET THE CRITERION FOR ZERO HEAT FLUX.
 
	UNSYMMETRIC NEW DIRECT SPARSE SOLVER RUNNING ON
 	1 HOST x 1 MPI RANK PER HOST x 4 THREADS PER RANK
        NUMBER OF EQUATIONS:  32172
        NUMBER OF RHS:        1
        NUMBER OF FLOPS:      1.373e+09
        SOLVER ELAPSED TIME:  35ms

               CONVERGENCE CHECKS FOR EQUILIBRIUM ITERATION     2


 AVERAGE FORCE                      1.209E+04   TIME AVG. FORCE       7.051E+03
 LARGEST SCALED RESIDUAL FORCE      0.363       AT NODE          6   DOF  1
   INSTANCE: ELASTIC-PLASTIC-PLATE-1                                                         
  CORRESPONDING RESIDUAL FORCE      0.363    
 LARGEST INCREMENT OF DISP.         6.051E-06   AT NODE      11703   DOF  2
   INSTANCE: ELASTIC-PLASTIC-PLATE-1                                                         
 LARGEST CORRECTION TO DISP.        2.763E-09   AT NODE          6   DOF  1
   INSTANCE: ELASTIC-PLASTIC-PLATE-1                                                         
          THE FORCE     EQUILIBRIUM EQUATIONS HAVE CONVERGED

 AVERAGE HEAT FLUX                  6.224E-13   TIME AVG. HEAT FLUX   1.000E-02
 LARGEST RESIDUAL HEAT FLUX         4.559E-11   AT NODE       3083   DOF 11
   INSTANCE: ELASTIC-PLASTIC-PLATE-1                                                         
 LARGEST INCREMENT OF TEMP.         0.288       AT NODE          6   DOF 11
   INSTANCE: ELASTIC-PLASTIC-PLATE-1                                                         
 LARGEST CORRECTION TO TEMP.        7.728E-02   AT NODE          6   DOF 11
   INSTANCE: ELASTIC-PLASTIC-PLATE-1                                                         
          THERE IS ZERO HEAT FLUX EVERYWHERE
 

 ***WARNING: THERE IS ZERO HEAT FLUX EVERYWHERE IN THE MODEL BASED ON THE 
             DEFAULT CRITERION. PLEASE CHECK THE VALUE OF THE AVERAGE HEAT FLUX 
             DURING THE CURRENT ITERATION TO VERIFY THAT THE HEAT FLUX IS SMALL 
             ENOUGH TO BE TREATED AS ZERO. IF NOT, PLEASE USE THE SOLUTION 
             CONTROLS TO RESET THE CRITERION FOR ZERO HEAT FLUX.

 ITERATION SUMMARY FOR THE INCREMENT:   2 TOTAL ITERATIONS, OF WHICH
   0 ARE SEVERE DISCONTINUITY ITERATIONS AND  2 ARE EQUILIBRIUM ITERATIONS.

 TIME INCREMENT COMPLETED  1.000E+03,  FRACTION OF STEP COMPLETED  6.000E-02
 STEP TIME COMPLETED       6.000E+03,  TOTAL TIME COMPLETED        6.000E+03


  INCREMENT     7 STARTS. ATTEMPT NUMBER  1, TIME INCREMENT  1.000E+03
 
	UNSYMMETRIC NEW DIRECT SPARSE SOLVER RUNNING ON
 	1 HOST x 1 MPI RANK PER HOST x 4 THREADS PER RANK
        NUMBER OF EQUATIONS:  32172
        NUMBER OF RHS:        1
        NUMBER OF FLOPS:      1.373e+09
        SOLVER ELAPSED TIME:  32ms

               CONVERGENCE CHECKS FOR EQUILIBRIUM ITERATION     1


 AVERAGE FORCE                      1.410E+04   TIME AVG. FORCE       8.058E+03
 LARGEST SCALED RESIDUAL FORCE      -222.       AT NODE      11883   DOF  1
   INSTANCE: ELASTIC-PLASTIC-PLATE-1                                                         
  CORRESPONDING RESIDUAL FORCE      -222.    
 LARGEST INCREMENT OF DISP.         6.052E-06   AT NODE      11703   DOF  2
   INSTANCE: ELASTIC-PLASTIC-PLATE-1                                                         
 LARGEST CORRECTION TO DISP.        1.043E-07   AT NODE      11917   DOF  2
   INSTANCE: ELASTIC-PLASTIC-PLATE-1                                                         
          FORCE     EQUILIBRIUM NOT ACHIEVED WITHIN TOLERANCE.

 AVERAGE HEAT FLUX                  7.233E-13   TIME AVG. HEAT FLUX   1.000E-02
 LARGEST RESIDUAL HEAT FLUX         4.653E-11   AT NODE       3083   DOF 11
   INSTANCE: ELASTIC-PLASTIC-PLATE-1                                                         
 LARGEST INCREMENT OF TEMP.         0.355       AT NODE        264   DOF 11
   INSTANCE: ELASTIC-PLASTIC-PLATE-1                                                         
 LARGEST CORRECTION TO TEMP.       -0.633       AT NODE          6   DOF 11
   INSTANCE: ELASTIC-PLASTIC-PLATE-1                                                         
          THERE IS ZERO HEAT FLUX EVERYWHERE
 

 ***WARNING: THERE IS ZERO HEAT FLUX EVERYWHERE IN THE MODEL BASED ON THE 
             DEFAULT CRITERION. PLEASE CHECK THE VALUE OF THE AVERAGE HEAT FLUX 
             DURING THE CURRENT ITERATION TO VERIFY THAT THE HEAT FLUX IS SMALL 
             ENOUGH TO BE TREATED AS ZERO. IF NOT, PLEASE USE THE SOLUTION 
             CONTROLS TO RESET THE CRITERION FOR ZERO HEAT FLUX.
 
	UNSYMMETRIC NEW DIRECT SPARSE SOLVER RUNNING ON
 	1 HOST x 1 MPI RANK PER HOST x 4 THREADS PER RANK
        NUMBER OF EQUATIONS:  32172
        NUMBER OF RHS:        1
        NUMBER OF FLOPS:      1.373e+09
        SOLVER ELAPSED TIME:  30ms

               CONVERGENCE CHECKS FOR EQUILIBRIUM ITERATION     2


 AVERAGE FORCE                      1.410E+04   TIME AVG. FORCE       8.058E+03
 LARGEST SCALED RESIDUAL FORCE      0.195       AT NODE      11883   DOF  2
   INSTANCE: ELASTIC-PLASTIC-PLATE-1                                                         
  CORRESPONDING RESIDUAL FORCE      0.195    
 LARGEST INCREMENT OF DISP.         6.052E-06   AT NODE      11703   DOF  2
   INSTANCE: ELASTIC-PLASTIC-PLATE-1                                                         
 LARGEST CORRECTION TO DISP.        1.959E-09   AT NODE        263   DOF  1
   INSTANCE: ELASTIC-PLASTIC-PLATE-1                                                         
          THE FORCE     EQUILIBRIUM EQUATIONS HAVE CONVERGED

 AVERAGE HEAT FLUX                  7.198E-13   TIME AVG. HEAT FLUX   1.000E-02
 LARGEST RESIDUAL HEAT FLUX        -1.707E-11   AT NODE        264   DOF 11
   INSTANCE: ELASTIC-PLASTIC-PLATE-1                                                         
 LARGEST INCREMENT OF TEMP.        -0.811       AT NODE          6   DOF 11
   INSTANCE: ELASTIC-PLASTIC-PLATE-1                                                         
 LARGEST CORRECTION TO TEMP.       -0.466       AT NODE          6   DOF 11
   INSTANCE: ELASTIC-PLASTIC-PLATE-1                                                         
          THERE IS ZERO HEAT FLUX EVERYWHERE
 

 ***WARNING: THERE IS ZERO HEAT FLUX EVERYWHERE IN THE MODEL BASED ON THE 
             DEFAULT CRITERION. PLEASE CHECK THE VALUE OF THE AVERAGE HEAT FLUX 
             DURING THE CURRENT ITERATION TO VERIFY THAT THE HEAT FLUX IS SMALL 
             ENOUGH TO BE TREATED AS ZERO. IF NOT, PLEASE USE THE SOLUTION 
             CONTROLS TO RESET THE CRITERION FOR ZERO HEAT FLUX.

 ITERATION SUMMARY FOR THE INCREMENT:   2 TOTAL ITERATIONS, OF WHICH
   0 ARE SEVERE DISCONTINUITY ITERATIONS AND  2 ARE EQUILIBRIUM ITERATIONS.

 TIME INCREMENT COMPLETED  1.000E+03,  FRACTION OF STEP COMPLETED  7.000E-02
 STEP TIME COMPLETED       7.000E+03,  TOTAL TIME COMPLETED        7.000E+03


  INCREMENT     8 STARTS. ATTEMPT NUMBER  1, TIME INCREMENT  1.000E+03
 
	UNSYMMETRIC NEW DIRECT SPARSE SOLVER RUNNING ON
 	1 HOST x 1 MPI RANK PER HOST x 4 THREADS PER RANK
        NUMBER OF EQUATIONS:  32172
        NUMBER OF RHS:        1
        NUMBER OF FLOPS:      1.373e+09
        SOLVER ELAPSED TIME:  31ms

               CONVERGENCE CHECKS FOR EQUILIBRIUM ITERATION     1


 AVERAGE FORCE                      1.610E+04   TIME AVG. FORCE       9.064E+03
 LARGEST SCALED RESIDUAL FORCE      -352.       AT NODE      11880   DOF  1
   INSTANCE: ELASTIC-PLASTIC-PLATE-1                                                         
  CORRESPONDING RESIDUAL FORCE      -352.    
 LARGEST INCREMENT OF DISP.         6.053E-06   AT NODE      11703   DOF  2
   INSTANCE: ELASTIC-PLASTIC-PLATE-1                                                         
 LARGEST CORRECTION TO DISP.        1.463E-07   AT NODE          6   DOF  1
   INSTANCE: ELASTIC-PLASTIC-PLATE-1                                                         
          FORCE     EQUILIBRIUM NOT ACHIEVED WITHIN TOLERANCE.

 AVERAGE HEAT FLUX                  8.237E-13   TIME AVG. HEAT FLUX   1.000E-02
 LARGEST RESIDUAL HEAT FLUX         6.000E-11   AT NODE       3083   DOF 11
   INSTANCE: ELASTIC-PLASTIC-PLATE-1                                                         
 LARGEST INCREMENT OF TEMP.         0.229       AT NODE       3083   DOF 11
   INSTANCE: ELASTIC-PLASTIC-PLATE-1                                                         
 LARGEST CORRECTION TO TEMP.        0.828       AT NODE          6   DOF 11
   INSTANCE: ELASTIC-PLASTIC-PLATE-1                                                         
          THERE IS ZERO HEAT FLUX EVERYWHERE
 

 ***WARNING: THERE IS ZERO HEAT FLUX EVERYWHERE IN THE MODEL BASED ON THE 
             DEFAULT CRITERION. PLEASE CHECK THE VALUE OF THE AVERAGE HEAT FLUX 
             DURING THE CURRENT ITERATION TO VERIFY THAT THE HEAT FLUX IS SMALL 
             ENOUGH TO BE TREATED AS ZERO. IF NOT, PLEASE USE THE SOLUTION 
             CONTROLS TO RESET THE CRITERION FOR ZERO HEAT FLUX.
 
	UNSYMMETRIC NEW DIRECT SPARSE SOLVER RUNNING ON
 	1 HOST x 1 MPI RANK PER HOST x 4 THREADS PER RANK
        NUMBER OF EQUATIONS:  32172
        NUMBER OF RHS:        1
        NUMBER OF FLOPS:      1.373e+09
        SOLVER ELAPSED TIME:  32ms

               CONVERGENCE CHECKS FOR EQUILIBRIUM ITERATION     2


 AVERAGE FORCE                      1.610E+04   TIME AVG. FORCE       9.064E+03
 LARGEST SCALED RESIDUAL FORCE      0.265       AT NODE      11881   DOF  2
   INSTANCE: ELASTIC-PLASTIC-PLATE-1                                                         
  CORRESPONDING RESIDUAL FORCE      0.265    
 LARGEST INCREMENT OF DISP.         6.053E-06   AT NODE      11703   DOF  2
   INSTANCE: ELASTIC-PLASTIC-PLATE-1                                                         
 LARGEST CORRECTION TO DISP.        2.352E-09   AT NODE      11917   DOF  1
   INSTANCE: ELASTIC-PLASTIC-PLATE-1                                                         
          THE FORCE     EQUILIBRIUM EQUATIONS HAVE CONVERGED

 AVERAGE HEAT FLUX                  8.224E-13   TIME AVG. HEAT FLUX   1.000E-02
 LARGEST RESIDUAL HEAT FLUX        -6.386E-11   AT NODE       3083   DOF 11
   INSTANCE: ELASTIC-PLASTIC-PLATE-1                                                         
 LARGEST INCREMENT OF TEMP.        -0.510       AT NODE        263   DOF 11
   INSTANCE: ELASTIC-PLASTIC-PLATE-1                                                         
 LARGEST CORRECTION TO TEMP.       -0.305       AT NODE        263   DOF 11
   INSTANCE: ELASTIC-PLASTIC-PLATE-1                                                         
          THERE IS ZERO HEAT FLUX EVERYWHERE
 

 ***WARNING: THERE IS ZERO HEAT FLUX EVERYWHERE IN THE MODEL BASED ON THE 
             DEFAULT CRITERION. PLEASE CHECK THE VALUE OF THE AVERAGE HEAT FLUX 
             DURING THE CURRENT ITERATION TO VERIFY THAT THE HEAT FLUX IS SMALL 
             ENOUGH TO BE TREATED AS ZERO. IF NOT, PLEASE USE THE SOLUTION 
             CONTROLS TO RESET THE CRITERION FOR ZERO HEAT FLUX.

 ITERATION SUMMARY FOR THE INCREMENT:   2 TOTAL ITERATIONS, OF WHICH
   0 ARE SEVERE DISCONTINUITY ITERATIONS AND  2 ARE EQUILIBRIUM ITERATIONS.

 TIME INCREMENT COMPLETED  1.000E+03,  FRACTION OF STEP COMPLETED  8.000E-02
 STEP TIME COMPLETED       8.000E+03,  TOTAL TIME COMPLETED        8.000E+03


  INCREMENT     9 STARTS. ATTEMPT NUMBER  1, TIME INCREMENT  1.000E+03
 
	UNSYMMETRIC NEW DIRECT SPARSE SOLVER RUNNING ON
 	1 HOST x 1 MPI RANK PER HOST x 4 THREADS PER RANK
        NUMBER OF EQUATIONS:  32172
        NUMBER OF RHS:        1
        NUMBER OF FLOPS:      1.373e+09
        SOLVER ELAPSED TIME:  30ms

               CONVERGENCE CHECKS FOR EQUILIBRIUM ITERATION     1


 AVERAGE FORCE                      1.810E+04   TIME AVG. FORCE       1.007E+04
 LARGEST SCALED RESIDUAL FORCE       151.       AT NODE       3083   DOF  1
   INSTANCE: ELASTIC-PLASTIC-PLATE-1                                                         
  CORRESPONDING RESIDUAL FORCE       151.    
 LARGEST INCREMENT OF DISP.         6.055E-06   AT NODE      11703   DOF  2
   INSTANCE: ELASTIC-PLASTIC-PLATE-1                                                         
 LARGEST CORRECTION TO DISP.        1.169E-07   AT NODE      11917   DOF  1
   INSTANCE: ELASTIC-PLASTIC-PLATE-1                                                         
          FORCE     EQUILIBRIUM NOT ACHIEVED WITHIN TOLERANCE.

 AVERAGE HEAT FLUX                  9.201E-13   TIME AVG. HEAT FLUX   1.000E-02
 LARGEST RESIDUAL HEAT FLUX         3.217E-11   AT NODE       2777   DOF 11
   INSTANCE: ELASTIC-PLASTIC-PLATE-1                                                         
 LARGEST INCREMENT OF TEMP.         0.287       AT NODE        265   DOF 11
   INSTANCE: ELASTIC-PLASTIC-PLATE-1                                                         
 LARGEST CORRECTION TO TEMP.        0.563       AT NODE        263   DOF 11
   INSTANCE: ELASTIC-PLASTIC-PLATE-1                                                         
          THERE IS ZERO HEAT FLUX EVERYWHERE
 

 ***WARNING: THERE IS ZERO HEAT FLUX EVERYWHERE IN THE MODEL BASED ON THE 
             DEFAULT CRITERION. PLEASE CHECK THE VALUE OF THE AVERAGE HEAT FLUX 
             DURING THE CURRENT ITERATION TO VERIFY THAT THE HEAT FLUX IS SMALL 
             ENOUGH TO BE TREATED AS ZERO. IF NOT, PLEASE USE THE SOLUTION 
             CONTROLS TO RESET THE CRITERION FOR ZERO HEAT FLUX.
 
	UNSYMMETRIC NEW DIRECT SPARSE SOLVER RUNNING ON
 	1 HOST x 1 MPI RANK PER HOST x 4 THREADS PER RANK
        NUMBER OF EQUATIONS:  32172
        NUMBER OF RHS:        1
        NUMBER OF FLOPS:      1.373e+09
        SOLVER ELAPSED TIME:  31ms

               CONVERGENCE CHECKS FOR EQUILIBRIUM ITERATION     2


 AVERAGE FORCE                      1.810E+04   TIME AVG. FORCE       1.007E+04
 LARGEST SCALED RESIDUAL FORCE      0.180       AT NODE      11799   DOF  2
   INSTANCE: ELASTIC-PLASTIC-PLATE-1                                                         
  CORRESPONDING RESIDUAL FORCE      0.180    
 LARGEST INCREMENT OF DISP.         6.055E-06   AT NODE      11703   DOF  2
   INSTANCE: ELASTIC-PLASTIC-PLATE-1                                                         
 LARGEST CORRECTION TO DISP.        2.555E-09   AT NODE      11917   DOF  1
   INSTANCE: ELASTIC-PLASTIC-PLATE-1                                                         
          THE FORCE     EQUILIBRIUM EQUATIONS HAVE CONVERGED

 AVERAGE HEAT FLUX                  9.194E-13   TIME AVG. HEAT FLUX   1.000E-02
 LARGEST RESIDUAL HEAT FLUX        -2.774E-11   AT NODE       3083   DOF 11
   INSTANCE: ELASTIC-PLASTIC-PLATE-1                                                         
 LARGEST INCREMENT OF TEMP.         0.477       AT NODE        265   DOF 11
   INSTANCE: ELASTIC-PLASTIC-PLATE-1                                                         
 LARGEST CORRECTION TO TEMP.        0.189       AT NODE        265   DOF 11
   INSTANCE: ELASTIC-PLASTIC-PLATE-1                                                         
          THERE IS ZERO HEAT FLUX EVERYWHERE
 

 ***WARNING: THERE IS ZERO HEAT FLUX EVERYWHERE IN THE MODEL BASED ON THE 
             DEFAULT CRITERION. PLEASE CHECK THE VALUE OF THE AVERAGE HEAT FLUX 
             DURING THE CURRENT ITERATION TO VERIFY THAT THE HEAT FLUX IS SMALL 
             ENOUGH TO BE TREATED AS ZERO. IF NOT, PLEASE USE THE SOLUTION 
             CONTROLS TO RESET THE CRITERION FOR ZERO HEAT FLUX.

 ITERATION SUMMARY FOR THE INCREMENT:   2 TOTAL ITERATIONS, OF WHICH
   0 ARE SEVERE DISCONTINUITY ITERATIONS AND  2 ARE EQUILIBRIUM ITERATIONS.

 TIME INCREMENT COMPLETED  1.000E+03,  FRACTION OF STEP COMPLETED  9.000E-02
 STEP TIME COMPLETED       9.000E+03,  TOTAL TIME COMPLETED        9.000E+03


  INCREMENT    10 STARTS. ATTEMPT NUMBER  1, TIME INCREMENT  1.000E+03
 
	UNSYMMETRIC NEW DIRECT SPARSE SOLVER RUNNING ON
 	1 HOST x 1 MPI RANK PER HOST x 4 THREADS PER RANK
        NUMBER OF EQUATIONS:  32172
        NUMBER OF RHS:        1
        NUMBER OF FLOPS:      1.373e+09
        SOLVER ELAPSED TIME:  33ms

               CONVERGENCE CHECKS FOR EQUILIBRIUM ITERATION     1


 AVERAGE FORCE                      2.009E+04   TIME AVG. FORCE       1.107E+04
 LARGEST SCALED RESIDUAL FORCE       257.       AT NODE      11880   DOF  1
   INSTANCE: ELASTIC-PLASTIC-PLATE-1                                                         
  CORRESPONDING RESIDUAL FORCE       257.    
 LARGEST INCREMENT OF DISP.         6.057E-06   AT NODE      11703   DOF  2
   INSTANCE: ELASTIC-PLASTIC-PLATE-1                                                         
 LARGEST CORRECTION TO DISP.        1.478E-07   AT NODE          6   DOF  1
   INSTANCE: ELASTIC-PLASTIC-PLATE-1                                                         
          FORCE     EQUILIBRIUM NOT ACHIEVED WITHIN TOLERANCE.

 AVERAGE HEAT FLUX                  1.024E-12   TIME AVG. HEAT FLUX   1.000E-02
 LARGEST RESIDUAL HEAT FLUX         4.595E-11   AT NODE       2777   DOF 11
   INSTANCE: ELASTIC-PLASTIC-PLATE-1                                                         
 LARGEST INCREMENT OF TEMP.         0.254       AT NODE       2777   DOF 11
   INSTANCE: ELASTIC-PLASTIC-PLATE-1                                                         
 LARGEST CORRECTION TO TEMP.       -0.293       AT NODE        265   DOF 11
   INSTANCE: ELASTIC-PLASTIC-PLATE-1                                                         
          THERE IS ZERO HEAT FLUX EVERYWHERE
 

 ***WARNING: THERE IS ZERO HEAT FLUX EVERYWHERE IN THE MODEL BASED ON THE 
             DEFAULT CRITERION. PLEASE CHECK THE VALUE OF THE AVERAGE HEAT FLUX 
             DURING THE CURRENT ITERATION TO VERIFY THAT THE HEAT FLUX IS SMALL 
             ENOUGH TO BE TREATED AS ZERO. IF NOT, PLEASE USE THE SOLUTION 
             CONTROLS TO RESET THE CRITERION FOR ZERO HEAT FLUX.
 
	UNSYMMETRIC NEW DIRECT SPARSE SOLVER RUNNING ON
 	1 HOST x 1 MPI RANK PER HOST x 4 THREADS PER RANK
        NUMBER OF EQUATIONS:  32172
        NUMBER OF RHS:        1
        NUMBER OF FLOPS:      1.373e+09
        SOLVER ELAPSED TIME:  33ms

               CONVERGENCE CHECKS FOR EQUILIBRIUM ITERATION     2


 AVERAGE FORCE                      2.009E+04   TIME AVG. FORCE       1.107E+04
 LARGEST SCALED RESIDUAL FORCE      0.276       AT NODE      11798   DOF  2
   INSTANCE: ELASTIC-PLASTIC-PLATE-1                                                         
  CORRESPONDING RESIDUAL FORCE      0.276    
 LARGEST INCREMENT OF DISP.         6.057E-06   AT NODE      11703   DOF  2
   INSTANCE: ELASTIC-PLASTIC-PLATE-1                                                         
 LARGEST CORRECTION TO DISP.        3.257E-09   AT NODE        262   DOF  1
   INSTANCE: ELASTIC-PLASTIC-PLATE-1                                                         
          THE FORCE     EQUILIBRIUM EQUATIONS HAVE CONVERGED

 AVERAGE HEAT FLUX                  1.021E-12   TIME AVG. HEAT FLUX   1.000E-02
 LARGEST RESIDUAL HEAT FLUX        -5.009E-11   AT NODE       2777   DOF 11
   INSTANCE: ELASTIC-PLASTIC-PLATE-1                                                         
 LARGEST INCREMENT OF TEMP.         0.412       AT NODE       2777   DOF 11
   INSTANCE: ELASTIC-PLASTIC-PLATE-1                                                         
 LARGEST CORRECTION TO TEMP.        0.158       AT NODE       2777   DOF 11
   INSTANCE: ELASTIC-PLASTIC-PLATE-1                                                         
          THERE IS ZERO HEAT FLUX EVERYWHERE
 

 ***WARNING: THERE IS ZERO HEAT FLUX EVERYWHERE IN THE MODEL BASED ON THE 
             DEFAULT CRITERION. PLEASE CHECK THE VALUE OF THE AVERAGE HEAT FLUX 
             DURING THE CURRENT ITERATION TO VERIFY THAT THE HEAT FLUX IS SMALL 
             ENOUGH TO BE TREATED AS ZERO. IF NOT, PLEASE USE THE SOLUTION 
             CONTROLS TO RESET THE CRITERION FOR ZERO HEAT FLUX.

 ITERATION SUMMARY FOR THE INCREMENT:   2 TOTAL ITERATIONS, OF WHICH
   0 ARE SEVERE DISCONTINUITY ITERATIONS AND  2 ARE EQUILIBRIUM ITERATIONS.

 TIME INCREMENT COMPLETED  1.000E+03,  FRACTION OF STEP COMPLETED  0.100    
 STEP TIME COMPLETED       1.000E+04,  TOTAL TIME COMPLETED        1.000E+04


  INCREMENT    11 STARTS. ATTEMPT NUMBER  1, TIME INCREMENT  1.000E+03
 
	UNSYMMETRIC NEW DIRECT SPARSE SOLVER RUNNING ON
 	1 HOST x 1 MPI RANK PER HOST x 4 THREADS PER RANK
        NUMBER OF EQUATIONS:  32172
        NUMBER OF RHS:        1
        NUMBER OF FLOPS:      1.373e+09
        SOLVER ELAPSED TIME:  30ms

               CONVERGENCE CHECKS FOR EQUILIBRIUM ITERATION     1


 AVERAGE FORCE                      2.208E+04   TIME AVG. FORCE       1.207E+04
 LARGEST SCALED RESIDUAL FORCE      -283.       AT NODE      10366   DOF  1
   INSTANCE: ELASTIC-PLASTIC-PLATE-1                                                         
  CORRESPONDING RESIDUAL FORCE      -283.    
 LARGEST INCREMENT OF DISP.         6.059E-06   AT NODE      11703   DOF  2
   INSTANCE: ELASTIC-PLASTIC-PLATE-1                                                         
 LARGEST CORRECTION TO DISP.        1.330E-07   AT NODE      11632   DOF  1
   INSTANCE: ELASTIC-PLASTIC-PLATE-1                                                         
          FORCE     EQUILIBRIUM NOT ACHIEVED WITHIN TOLERANCE.

 AVERAGE HEAT FLUX                  1.120E-12   TIME AVG. HEAT FLUX   1.000E-02
 LARGEST RESIDUAL HEAT FLUX         2.303E-11   AT NODE       2776   DOF 11
   INSTANCE: ELASTIC-PLASTIC-PLATE-1                                                         
 LARGEST INCREMENT OF TEMP.         0.211       AT NODE        266   DOF 11
   INSTANCE: ELASTIC-PLASTIC-PLATE-1                                                         
 LARGEST CORRECTION TO TEMP.       -0.345       AT NODE       2777   DOF 11
   INSTANCE: ELASTIC-PLASTIC-PLATE-1                                                         
          THERE IS ZERO HEAT FLUX EVERYWHERE
 

 ***WARNING: THERE IS ZERO HEAT FLUX EVERYWHERE IN THE MODEL BASED ON THE 
             DEFAULT CRITERION. PLEASE CHECK THE VALUE OF THE AVERAGE HEAT FLUX 
             DURING THE CURRENT ITERATION TO VERIFY THAT THE HEAT FLUX IS SMALL 
             ENOUGH TO BE TREATED AS ZERO. IF NOT, PLEASE USE THE SOLUTION 
             CONTROLS TO RESET THE CRITERION FOR ZERO HEAT FLUX.
 
	UNSYMMETRIC NEW DIRECT SPARSE SOLVER RUNNING ON
 	1 HOST x 1 MPI RANK PER HOST x 4 THREADS PER RANK
        NUMBER OF EQUATIONS:  32172
        NUMBER OF RHS:        1
        NUMBER OF FLOPS:      1.373e+09
        SOLVER ELAPSED TIME:  32ms

               CONVERGENCE CHECKS FOR EQUILIBRIUM ITERATION     2


 AVERAGE FORCE                      2.208E+04   TIME AVG. FORCE       1.207E+04
 LARGEST SCALED RESIDUAL FORCE      0.313       AT NODE       2812   DOF  1
   INSTANCE: ELASTIC-PLASTIC-PLATE-1                                                         
  CORRESPONDING RESIDUAL FORCE      0.313    
 LARGEST INCREMENT OF DISP.         6.059E-06   AT NODE      11703   DOF  2
   INSTANCE: ELASTIC-PLASTIC-PLATE-1                                                         
 LARGEST CORRECTION TO DISP.        4.086E-09   AT NODE      11632   DOF  1
   INSTANCE: ELASTIC-PLASTIC-PLATE-1                                                         
          THE FORCE     EQUILIBRIUM EQUATIONS HAVE CONVERGED

 AVERAGE HEAT FLUX                  1.118E-12   TIME AVG. HEAT FLUX   1.000E-02
 LARGEST RESIDUAL HEAT FLUX        -2.108E-11   AT NODE       2777   DOF 11
   INSTANCE: ELASTIC-PLASTIC-PLATE-1                                                         
 LARGEST INCREMENT OF TEMP.         0.332       AT NODE        266   DOF 11
   INSTANCE: ELASTIC-PLASTIC-PLATE-1                                                         
 LARGEST CORRECTION TO TEMP.        0.121       AT NODE        266   DOF 11
   INSTANCE: ELASTIC-PLASTIC-PLATE-1                                                         
          THERE IS ZERO HEAT FLUX EVERYWHERE
 

 ***WARNING: THERE IS ZERO HEAT FLUX EVERYWHERE IN THE MODEL BASED ON THE 
             DEFAULT CRITERION. PLEASE CHECK THE VALUE OF THE AVERAGE HEAT FLUX 
             DURING THE CURRENT ITERATION TO VERIFY THAT THE HEAT FLUX IS SMALL 
             ENOUGH TO BE TREATED AS ZERO. IF NOT, PLEASE USE THE SOLUTION 
             CONTROLS TO RESET THE CRITERION FOR ZERO HEAT FLUX.

 ITERATION SUMMARY FOR THE INCREMENT:   2 TOTAL ITERATIONS, OF WHICH
   0 ARE SEVERE DISCONTINUITY ITERATIONS AND  2 ARE EQUILIBRIUM ITERATIONS.

 TIME INCREMENT COMPLETED  1.000E+03,  FRACTION OF STEP COMPLETED  0.110    
 STEP TIME COMPLETED       1.100E+04,  TOTAL TIME COMPLETED        1.100E+04


  INCREMENT    12 STARTS. ATTEMPT NUMBER  1, TIME INCREMENT  1.000E+03
 
	UNSYMMETRIC NEW DIRECT SPARSE SOLVER RUNNING ON
 	1 HOST x 1 MPI RANK PER HOST x 4 THREADS PER RANK
        NUMBER OF EQUATIONS:  32172
        NUMBER OF RHS:        1
        NUMBER OF FLOPS:      1.373e+09
        SOLVER ELAPSED TIME:  35ms

               CONVERGENCE CHECKS FOR EQUILIBRIUM ITERATION     1


 AVERAGE FORCE                      2.405E+04   TIME AVG. FORCE       1.307E+04
 LARGEST SCALED RESIDUAL FORCE      2.740E+03   AT NODE      10368   DOF  1
   INSTANCE: ELASTIC-PLASTIC-PLATE-1                                                         
  CORRESPONDING RESIDUAL FORCE      2.740E+03
 LARGEST INCREMENT OF DISP.         6.061E-06   AT NODE      11703   DOF  2
   INSTANCE: ELASTIC-PLASTIC-PLATE-1                                                         
 LARGEST CORRECTION TO DISP.        1.369E-07   AT NODE      12303   DOF  1
   INSTANCE: ELASTIC-PLASTIC-PLATE-1                                                         
          FORCE     EQUILIBRIUM NOT ACHIEVED WITHIN TOLERANCE.

 AVERAGE HEAT FLUX                  1.221E-12   TIME AVG. HEAT FLUX   1.000E-02
 LARGEST RESIDUAL HEAT FLUX         3.237E-11   AT NODE       2776   DOF 11
   INSTANCE: ELASTIC-PLASTIC-PLATE-1                                                         
 LARGEST INCREMENT OF TEMP.         0.210       AT NODE       2776   DOF 11
   INSTANCE: ELASTIC-PLASTIC-PLATE-1                                                         
 LARGEST CORRECTION TO TEMP.       -0.156       AT NODE       2891   DOF 11
   INSTANCE: ELASTIC-PLASTIC-PLATE-1                                                         
          THERE IS ZERO HEAT FLUX EVERYWHERE
 

 ***WARNING: THERE IS ZERO HEAT FLUX EVERYWHERE IN THE MODEL BASED ON THE 
             DEFAULT CRITERION. PLEASE CHECK THE VALUE OF THE AVERAGE HEAT FLUX 
             DURING THE CURRENT ITERATION TO VERIFY THAT THE HEAT FLUX IS SMALL 
             ENOUGH TO BE TREATED AS ZERO. IF NOT, PLEASE USE THE SOLUTION 
             CONTROLS TO RESET THE CRITERION FOR ZERO HEAT FLUX.
 
	UNSYMMETRIC NEW DIRECT SPARSE SOLVER RUNNING ON
 	1 HOST x 1 MPI RANK PER HOST x 4 THREADS PER RANK
        NUMBER OF EQUATIONS:  32172
        NUMBER OF RHS:        1
        NUMBER OF FLOPS:      1.373e+09
        SOLVER ELAPSED TIME:  32ms

               CONVERGENCE CHECKS FOR EQUILIBRIUM ITERATION     2


 AVERAGE FORCE                      2.406E+04   TIME AVG. FORCE       1.307E+04
 LARGEST SCALED RESIDUAL FORCE       3.27       AT NODE      10368   DOF  2
   INSTANCE: ELASTIC-PLASTIC-PLATE-1                                                         
  CORRESPONDING RESIDUAL FORCE       3.27    
 LARGEST INCREMENT OF DISP.         6.061E-06   AT NODE      11703   DOF  2
   INSTANCE: ELASTIC-PLASTIC-PLATE-1                                                         
 LARGEST CORRECTION TO DISP.        7.818E-09   AT NODE       2977   DOF  2
   INSTANCE: ELASTIC-PLASTIC-PLATE-1                                                         
          THE FORCE     EQUILIBRIUM EQUATIONS HAVE CONVERGED

 AVERAGE HEAT FLUX                  1.217E-12   TIME AVG. HEAT FLUX   1.000E-02
 LARGEST RESIDUAL HEAT FLUX        -3.840E-11   AT NODE       2776   DOF 11
   INSTANCE: ELASTIC-PLASTIC-PLATE-1                                                         
 LARGEST INCREMENT OF TEMP.         0.329       AT NODE       2776   DOF 11
   INSTANCE: ELASTIC-PLASTIC-PLATE-1                                                         
 LARGEST CORRECTION TO TEMP.        0.119       AT NODE       2776   DOF 11
   INSTANCE: ELASTIC-PLASTIC-PLATE-1                                                         
          THERE IS ZERO HEAT FLUX EVERYWHERE
 

 ***WARNING: THERE IS ZERO HEAT FLUX EVERYWHERE IN THE MODEL BASED ON THE 
             DEFAULT CRITERION. PLEASE CHECK THE VALUE OF THE AVERAGE HEAT FLUX 
             DURING THE CURRENT ITERATION TO VERIFY THAT THE HEAT FLUX IS SMALL 
             ENOUGH TO BE TREATED AS ZERO. IF NOT, PLEASE USE THE SOLUTION 
             CONTROLS TO RESET THE CRITERION FOR ZERO HEAT FLUX.

 ITERATION SUMMARY FOR THE INCREMENT:   2 TOTAL ITERATIONS, OF WHICH
   0 ARE SEVERE DISCONTINUITY ITERATIONS AND  2 ARE EQUILIBRIUM ITERATIONS.

 TIME INCREMENT COMPLETED  1.000E+03,  FRACTION OF STEP COMPLETED  0.120    
 STEP TIME COMPLETED       1.200E+04,  TOTAL TIME COMPLETED        1.200E+04


  INCREMENT    13 STARTS. ATTEMPT NUMBER  1, TIME INCREMENT  1.000E+03
 
	UNSYMMETRIC NEW DIRECT SPARSE SOLVER RUNNING ON
 	1 HOST x 1 MPI RANK PER HOST x 4 THREADS PER RANK
        NUMBER OF EQUATIONS:  32172
        NUMBER OF RHS:        1
        NUMBER OF FLOPS:      1.373e+09
        SOLVER ELAPSED TIME:  35ms

               CONVERGENCE CHECKS FOR EQUILIBRIUM ITERATION     1


 AVERAGE FORCE                      2.602E+04   TIME AVG. FORCE       1.407E+04
 LARGEST SCALED RESIDUAL FORCE      -624.       AT NODE       2977   DOF  2
   INSTANCE: ELASTIC-PLASTIC-PLATE-1                                                         
  CORRESPONDING RESIDUAL FORCE      -624.    
 LARGEST INCREMENT OF DISP.         6.064E-06   AT NODE      11703   DOF  2
   INSTANCE: ELASTIC-PLASTIC-PLATE-1                                                         
 LARGEST CORRECTION TO DISP.        1.371E-07   AT NODE        261   DOF  1
   INSTANCE: ELASTIC-PLASTIC-PLATE-1                                                         
          FORCE     EQUILIBRIUM NOT ACHIEVED WITHIN TOLERANCE.

 AVERAGE HEAT FLUX                  1.314E-12   TIME AVG. HEAT FLUX   1.000E-02
 LARGEST RESIDUAL HEAT FLUX         1.956E-11   AT NODE       2745   DOF 11
   INSTANCE: ELASTIC-PLASTIC-PLATE-1                                                         
 LARGEST INCREMENT OF TEMP.         0.166       AT NODE        267   DOF 11
   INSTANCE: ELASTIC-PLASTIC-PLATE-1                                                         
 LARGEST CORRECTION TO TEMP.       -0.266       AT NODE       2776   DOF 11
   INSTANCE: ELASTIC-PLASTIC-PLATE-1                                                         
          THERE IS ZERO HEAT FLUX EVERYWHERE
 

 ***WARNING: THERE IS ZERO HEAT FLUX EVERYWHERE IN THE MODEL BASED ON THE 
             DEFAULT CRITERION. PLEASE CHECK THE VALUE OF THE AVERAGE HEAT FLUX 
             DURING THE CURRENT ITERATION TO VERIFY THAT THE HEAT FLUX IS SMALL 
             ENOUGH TO BE TREATED AS ZERO. IF NOT, PLEASE USE THE SOLUTION 
             CONTROLS TO RESET THE CRITERION FOR ZERO HEAT FLUX.
 
	UNSYMMETRIC NEW DIRECT SPARSE SOLVER RUNNING ON
 	1 HOST x 1 MPI RANK PER HOST x 4 THREADS PER RANK
        NUMBER OF EQUATIONS:  32172
        NUMBER OF RHS:        1
        NUMBER OF FLOPS:      1.373e+09
        SOLVER ELAPSED TIME:  33ms

               CONVERGENCE CHECKS FOR EQUILIBRIUM ITERATION     2


 AVERAGE FORCE                      2.602E+04   TIME AVG. FORCE       1.407E+04
 LARGEST SCALED RESIDUAL FORCE      -2.02       AT NODE      11919   DOF  2
   INSTANCE: ELASTIC-PLASTIC-PLATE-1                                                         
  CORRESPONDING RESIDUAL FORCE      -2.02    
 LARGEST INCREMENT OF DISP.         6.064E-06   AT NODE      11703   DOF  2
   INSTANCE: ELASTIC-PLASTIC-PLATE-1                                                         
 LARGEST CORRECTION TO DISP.        5.983E-09   AT NODE      10351   DOF  1
   INSTANCE: ELASTIC-PLASTIC-PLATE-1                                                         
          THE FORCE     EQUILIBRIUM EQUATIONS HAVE CONVERGED

 AVERAGE HEAT FLUX                  1.312E-12   TIME AVG. HEAT FLUX   1.000E-02
 LARGEST RESIDUAL HEAT FLUX        -2.415E-11   AT NODE       2881   DOF 11
   INSTANCE: ELASTIC-PLASTIC-PLATE-1                                                         
 LARGEST INCREMENT OF TEMP.         0.257       AT NODE        267   DOF 11
   INSTANCE: ELASTIC-PLASTIC-PLATE-1                                                         
 LARGEST CORRECTION TO TEMP.        9.119E-02   AT NODE        267   DOF 11
   INSTANCE: ELASTIC-PLASTIC-PLATE-1                                                         
          THERE IS ZERO HEAT FLUX EVERYWHERE
 

 ***WARNING: THERE IS ZERO HEAT FLUX EVERYWHERE IN THE MODEL BASED ON THE 
             DEFAULT CRITERION. PLEASE CHECK THE VALUE OF THE AVERAGE HEAT FLUX 
             DURING THE CURRENT ITERATION TO VERIFY THAT THE HEAT FLUX IS SMALL 
             ENOUGH TO BE TREATED AS ZERO. IF NOT, PLEASE USE THE SOLUTION 
             CONTROLS TO RESET THE CRITERION FOR ZERO HEAT FLUX.

 ITERATION SUMMARY FOR THE INCREMENT:   2 TOTAL ITERATIONS, OF WHICH
   0 ARE SEVERE DISCONTINUITY ITERATIONS AND  2 ARE EQUILIBRIUM ITERATIONS.

 TIME INCREMENT COMPLETED  1.000E+03,  FRACTION OF STEP COMPLETED  0.130    
 STEP TIME COMPLETED       1.300E+04,  TOTAL TIME COMPLETED        1.300E+04


  INCREMENT    14 STARTS. ATTEMPT NUMBER  1, TIME INCREMENT  1.000E+03
 
	UNSYMMETRIC NEW DIRECT SPARSE SOLVER RUNNING ON
 	1 HOST x 1 MPI RANK PER HOST x 4 THREADS PER RANK
        NUMBER OF EQUATIONS:  32172
        NUMBER OF RHS:        1
        NUMBER OF FLOPS:      1.373e+09
        SOLVER ELAPSED TIME:  31ms

               CONVERGENCE CHECKS FOR EQUILIBRIUM ITERATION     1


 AVERAGE FORCE                      2.798E+04   TIME AVG. FORCE       1.506E+04
 LARGEST SCALED RESIDUAL FORCE      1.437E+03   AT NODE      12208   DOF  2
   INSTANCE: ELASTIC-PLASTIC-PLATE-1                                                         
  CORRESPONDING RESIDUAL FORCE      1.437E+03
 LARGEST INCREMENT OF DISP.         6.067E-06   AT NODE      11703   DOF  2
   INSTANCE: ELASTIC-PLASTIC-PLATE-1                                                         
 LARGEST CORRECTION TO DISP.        1.335E-07   AT NODE        263   DOF  1
   INSTANCE: ELASTIC-PLASTIC-PLATE-1                                                         
          FORCE     EQUILIBRIUM NOT ACHIEVED WITHIN TOLERANCE.

 AVERAGE HEAT FLUX                  1.413E-12   TIME AVG. HEAT FLUX   1.000E-02
 LARGEST RESIDUAL HEAT FLUX         2.383E-11   AT NODE       4312   DOF 11
[...]
 LARGEST SCALED RESIDUAL FORCE       2.05       AT NODE       5714   DOF  2
   INSTANCE: ELASTIC-PLASTIC-PLATE-1                                                         
  CORRESPONDING RESIDUAL FORCE       2.05    
 LARGEST INCREMENT OF DISP.         6.313E-06   AT NODE          5   DOF  2
   INSTANCE: ELASTIC-PLASTIC-PLATE-1                                                         
 LARGEST CORRECTION TO DISP.        6.311E-09   AT NODE       8005   DOF  2
   INSTANCE: ELASTIC-PLASTIC-PLATE-1                                                         
          THE FORCE     EQUILIBRIUM EQUATIONS HAVE CONVERGED

 AVERAGE HEAT FLUX                  4.208E-12   TIME AVG. HEAT FLUX   1.000E-02
 LARGEST RESIDUAL HEAT FLUX        -3.335E-12   AT NODE       2980   DOF 11
   INSTANCE: ELASTIC-PLASTIC-PLATE-1                                                         
 LARGEST INCREMENT OF TEMP.        -4.566E-02   AT NODE        250   DOF 11
   INSTANCE: ELASTIC-PLASTIC-PLATE-1                                                         
 LARGEST CORRECTION TO TEMP.       -1.318E-02   AT NODE       2980   DOF 11
   INSTANCE: ELASTIC-PLASTIC-PLATE-1                                                         
          THERE IS ZERO HEAT FLUX EVERYWHERE
 

 ***WARNING: THERE IS ZERO HEAT FLUX EVERYWHERE IN THE MODEL BASED ON THE 
             DEFAULT CRITERION. PLEASE CHECK THE VALUE OF THE AVERAGE HEAT FLUX 
             DURING THE CURRENT ITERATION TO VERIFY THAT THE HEAT FLUX IS SMALL 
             ENOUGH TO BE TREATED AS ZERO. IF NOT, PLEASE USE THE SOLUTION 
             CONTROLS TO RESET THE CRITERION FOR ZERO HEAT FLUX.

 ITERATION SUMMARY FOR THE INCREMENT:   1 TOTAL ITERATIONS, OF WHICH
   0 ARE SEVERE DISCONTINUITY ITERATIONS AND  1 ARE EQUILIBRIUM ITERATIONS.

 TIME INCREMENT COMPLETED  1.000E+03,  FRACTION OF STEP COMPLETED  0.930    
 STEP TIME COMPLETED       9.300E+04,  TOTAL TIME COMPLETED        9.300E+04


  INCREMENT    94 STARTS. ATTEMPT NUMBER  1, TIME INCREMENT  1.000E+03
 
	UNSYMMETRIC NEW DIRECT SPARSE SOLVER RUNNING ON
 	1 HOST x 1 MPI RANK PER HOST x 4 THREADS PER RANK
        NUMBER OF EQUATIONS:  32172
        NUMBER OF RHS:        1
        NUMBER OF FLOPS:      1.373e+09
        SOLVER ELAPSED TIME:  30ms

               CONVERGENCE CHECKS FOR EQUILIBRIUM ITERATION     1


 AVERAGE FORCE                      7.878E+04   TIME AVG. FORCE       5.633E+04
 LARGEST SCALED RESIDUAL FORCE      -98.0       AT NODE       8366   DOF  2
   INSTANCE: ELASTIC-PLASTIC-PLATE-1                                                         
  CORRESPONDING RESIDUAL FORCE      -98.0    
 LARGEST INCREMENT OF DISP.         6.312E-06   AT NODE          5   DOF  2
   INSTANCE: ELASTIC-PLASTIC-PLATE-1                                                         
 LARGEST CORRECTION TO DISP.       -6.315E-09   AT NODE       8490   DOF  2
   INSTANCE: ELASTIC-PLASTIC-PLATE-1                                                         
          THE FORCE     EQUILIBRIUM EQUATIONS HAVE CONVERGED

 AVERAGE HEAT FLUX                  4.222E-12   TIME AVG. HEAT FLUX   1.000E-02
 LARGEST RESIDUAL HEAT FLUX        -3.659E-12   AT NODE       2980   DOF 11
   INSTANCE: ELASTIC-PLASTIC-PLATE-1                                                         
 LARGEST INCREMENT OF TEMP.        -4.600E-02   AT NODE        250   DOF 11
   INSTANCE: ELASTIC-PLASTIC-PLATE-1                                                         
 LARGEST CORRECTION TO TEMP.       -1.098E-02   AT NODE       3497   DOF 11
   INSTANCE: ELASTIC-PLASTIC-PLATE-1                                                         
          THERE IS ZERO HEAT FLUX EVERYWHERE
 

 ***WARNING: THERE IS ZERO HEAT FLUX EVERYWHERE IN THE MODEL BASED ON THE 
             DEFAULT CRITERION. PLEASE CHECK THE VALUE OF THE AVERAGE HEAT FLUX 
             DURING THE CURRENT ITERATION TO VERIFY THAT THE HEAT FLUX IS SMALL 
             ENOUGH TO BE TREATED AS ZERO. IF NOT, PLEASE USE THE SOLUTION 
             CONTROLS TO RESET THE CRITERION FOR ZERO HEAT FLUX.

 ITERATION SUMMARY FOR THE INCREMENT:   1 TOTAL ITERATIONS, OF WHICH
   0 ARE SEVERE DISCONTINUITY ITERATIONS AND  1 ARE EQUILIBRIUM ITERATIONS.

 TIME INCREMENT COMPLETED  1.000E+03,  FRACTION OF STEP COMPLETED  0.940    
 STEP TIME COMPLETED       9.400E+04,  TOTAL TIME COMPLETED        9.400E+04


  INCREMENT    95 STARTS. ATTEMPT NUMBER  1, TIME INCREMENT  1.000E+03
 
	UNSYMMETRIC NEW DIRECT SPARSE SOLVER RUNNING ON
 	1 HOST x 1 MPI RANK PER HOST x 4 THREADS PER RANK
        NUMBER OF EQUATIONS:  32172
        NUMBER OF RHS:        1
        NUMBER OF FLOPS:      1.373e+09
        SOLVER ELAPSED TIME:  31ms

               CONVERGENCE CHECKS FOR EQUILIBRIUM ITERATION     1


 AVERAGE FORCE                      7.902E+04   TIME AVG. FORCE       5.657E+04
 LARGEST SCALED RESIDUAL FORCE      -78.0       AT NODE       8124   DOF  2
   INSTANCE: ELASTIC-PLASTIC-PLATE-1                                                         
  CORRESPONDING RESIDUAL FORCE      -78.0    
 LARGEST INCREMENT OF DISP.         6.311E-06   AT NODE          5   DOF  2
   INSTANCE: ELASTIC-PLASTIC-PLATE-1                                                         
 LARGEST CORRECTION TO DISP.       -7.618E-09   AT NODE       8248   DOF  2
   INSTANCE: ELASTIC-PLASTIC-PLATE-1                                                         
          THE FORCE     EQUILIBRIUM EQUATIONS HAVE CONVERGED

 AVERAGE HEAT FLUX                  4.237E-12   TIME AVG. HEAT FLUX   1.000E-02
 LARGEST RESIDUAL HEAT FLUX        -3.638E-12   AT NODE       2980   DOF 11
   INSTANCE: ELASTIC-PLASTIC-PLATE-1                                                         
 LARGEST INCREMENT OF TEMP.        -4.627E-02   AT NODE        250   DOF 11
   INSTANCE: ELASTIC-PLASTIC-PLATE-1                                                         
 LARGEST CORRECTION TO TEMP.       -7.253E-03   AT NODE       3574   DOF 11
   INSTANCE: ELASTIC-PLASTIC-PLATE-1                                                         
          THERE IS ZERO HEAT FLUX EVERYWHERE
 

 ***WARNING: THERE IS ZERO HEAT FLUX EVERYWHERE IN THE MODEL BASED ON THE 
             DEFAULT CRITERION. PLEASE CHECK THE VALUE OF THE AVERAGE HEAT FLUX 
             DURING THE CURRENT ITERATION TO VERIFY THAT THE HEAT FLUX IS SMALL 
             ENOUGH TO BE TREATED AS ZERO. IF NOT, PLEASE USE THE SOLUTION 
             CONTROLS TO RESET THE CRITERION FOR ZERO HEAT FLUX.

 ITERATION SUMMARY FOR THE INCREMENT:   1 TOTAL ITERATIONS, OF WHICH
   0 ARE SEVERE DISCONTINUITY ITERATIONS AND  1 ARE EQUILIBRIUM ITERATIONS.

 TIME INCREMENT COMPLETED  1.000E+03,  FRACTION OF STEP COMPLETED  0.950    
 STEP TIME COMPLETED       9.500E+04,  TOTAL TIME COMPLETED        9.500E+04


  INCREMENT    96 STARTS. ATTEMPT NUMBER  1, TIME INCREMENT  1.000E+03
 
	UNSYMMETRIC NEW DIRECT SPARSE SOLVER RUNNING ON
 	1 HOST x 1 MPI RANK PER HOST x 4 THREADS PER RANK
        NUMBER OF EQUATIONS:  32172
        NUMBER OF RHS:        1
        NUMBER OF FLOPS:      1.373e+09
        SOLVER ELAPSED TIME:  31ms

               CONVERGENCE CHECKS FOR EQUILIBRIUM ITERATION     1


 AVERAGE FORCE                      7.925E+04   TIME AVG. FORCE       5.681E+04
 LARGEST SCALED RESIDUAL FORCE       64.9       AT NODE      11343   DOF  2
   INSTANCE: ELASTIC-PLASTIC-PLATE-1                                                         
  CORRESPONDING RESIDUAL FORCE       64.9    
 LARGEST INCREMENT OF DISP.         6.311E-06   AT NODE          5   DOF  2
   INSTANCE: ELASTIC-PLASTIC-PLATE-1                                                         
 LARGEST CORRECTION TO DISP.        5.731E-09   AT NODE       2066   DOF  2
   INSTANCE: ELASTIC-PLASTIC-PLATE-1                                                         
          THE FORCE     EQUILIBRIUM EQUATIONS HAVE CONVERGED

 AVERAGE HEAT FLUX                  4.251E-12   TIME AVG. HEAT FLUX   1.000E-02
 LARGEST RESIDUAL HEAT FLUX         2.949E-12   AT NODE       3459   DOF 11
   INSTANCE: ELASTIC-PLASTIC-PLATE-1                                                         
 LARGEST INCREMENT OF TEMP.        -4.586E-02   AT NODE        250   DOF 11
   INSTANCE: ELASTIC-PLASTIC-PLATE-1                                                         
 LARGEST CORRECTION TO TEMP.       -8.645E-03   AT NODE       3362   DOF 11
   INSTANCE: ELASTIC-PLASTIC-PLATE-1                                                         
          THERE IS ZERO HEAT FLUX EVERYWHERE
 

 ***WARNING: THERE IS ZERO HEAT FLUX EVERYWHERE IN THE MODEL BASED ON THE 
             DEFAULT CRITERION. PLEASE CHECK THE VALUE OF THE AVERAGE HEAT FLUX 
             DURING THE CURRENT ITERATION TO VERIFY THAT THE HEAT FLUX IS SMALL 
             ENOUGH TO BE TREATED AS ZERO. IF NOT, PLEASE USE THE SOLUTION 
             CONTROLS TO RESET THE CRITERION FOR ZERO HEAT FLUX.

 ITERATION SUMMARY FOR THE INCREMENT:   1 TOTAL ITERATIONS, OF WHICH
   0 ARE SEVERE DISCONTINUITY ITERATIONS AND  1 ARE EQUILIBRIUM ITERATIONS.

 TIME INCREMENT COMPLETED  1.000E+03,  FRACTION OF STEP COMPLETED  0.960    
 STEP TIME COMPLETED       9.600E+04,  TOTAL TIME COMPLETED        9.600E+04


  INCREMENT    97 STARTS. ATTEMPT NUMBER  1, TIME INCREMENT  1.000E+03
 
	UNSYMMETRIC NEW DIRECT SPARSE SOLVER RUNNING ON
 	1 HOST x 1 MPI RANK PER HOST x 4 THREADS PER RANK
        NUMBER OF EQUATIONS:  32172
        NUMBER OF RHS:        1
        NUMBER OF FLOPS:      1.373e+09
        SOLVER ELAPSED TIME:  30ms

               CONVERGENCE CHECKS FOR EQUILIBRIUM ITERATION     1


 AVERAGE FORCE                      7.949E+04   TIME AVG. FORCE       5.704E+04
 LARGEST SCALED RESIDUAL FORCE      -67.5       AT NODE       4424   DOF  2
   INSTANCE: ELASTIC-PLASTIC-PLATE-1                                                         
  CORRESPONDING RESIDUAL FORCE      -67.5    
 LARGEST INCREMENT OF DISP.         6.310E-06   AT NODE          5   DOF  2
   INSTANCE: ELASTIC-PLASTIC-PLATE-1                                                         
 LARGEST CORRECTION TO DISP.        9.032E-09   AT NODE      10342   DOF  1
   INSTANCE: ELASTIC-PLASTIC-PLATE-1                                                         
          THE FORCE     EQUILIBRIUM EQUATIONS HAVE CONVERGED

 AVERAGE HEAT FLUX                  4.265E-12   TIME AVG. HEAT FLUX   1.000E-02
 LARGEST RESIDUAL HEAT FLUX         2.882E-12   AT NODE       2592   DOF 11
   INSTANCE: ELASTIC-PLASTIC-PLATE-1                                                         
 LARGEST INCREMENT OF TEMP.        -4.682E-02   AT NODE        251   DOF 11
   INSTANCE: ELASTIC-PLASTIC-PLATE-1                                                         
 LARGEST CORRECTION TO TEMP.       -8.902E-03   AT NODE       3453   DOF 11
   INSTANCE: ELASTIC-PLASTIC-PLATE-1                                                         
          THERE IS ZERO HEAT FLUX EVERYWHERE
 

 ***WARNING: THERE IS ZERO HEAT FLUX EVERYWHERE IN THE MODEL BASED ON THE 
             DEFAULT CRITERION. PLEASE CHECK THE VALUE OF THE AVERAGE HEAT FLUX 
             DURING THE CURRENT ITERATION TO VERIFY THAT THE HEAT FLUX IS SMALL 
             ENOUGH TO BE TREATED AS ZERO. IF NOT, PLEASE USE THE SOLUTION 
             CONTROLS TO RESET THE CRITERION FOR ZERO HEAT FLUX.

 ITERATION SUMMARY FOR THE INCREMENT:   1 TOTAL ITERATIONS, OF WHICH
   0 ARE SEVERE DISCONTINUITY ITERATIONS AND  1 ARE EQUILIBRIUM ITERATIONS.

 TIME INCREMENT COMPLETED  1.000E+03,  FRACTION OF STEP COMPLETED  0.970    
 STEP TIME COMPLETED       9.700E+04,  TOTAL TIME COMPLETED        9.700E+04


  INCREMENT    98 STARTS. ATTEMPT NUMBER  1, TIME INCREMENT  1.000E+03
 
	UNSYMMETRIC NEW DIRECT SPARSE SOLVER RUNNING ON
 	1 HOST x 1 MPI RANK PER HOST x 4 THREADS PER RANK
        NUMBER OF EQUATIONS:  32172
        NUMBER OF RHS:        1
        NUMBER OF FLOPS:      1.373e+09
        SOLVER ELAPSED TIME:  30ms

               CONVERGENCE CHECKS FOR EQUILIBRIUM ITERATION     1


 AVERAGE FORCE                      7.972E+04   TIME AVG. FORCE       5.727E+04
 LARGEST SCALED RESIDUAL FORCE      -5.26       AT NODE       8245   DOF  2
   INSTANCE: ELASTIC-PLASTIC-PLATE-1                                                         
  CORRESPONDING RESIDUAL FORCE      -5.26    
 LARGEST INCREMENT OF DISP.         6.309E-06   AT NODE          5   DOF  2
   INSTANCE: ELASTIC-PLASTIC-PLATE-1                                                         
 LARGEST CORRECTION TO DISP.       -8.860E-09   AT NODE       8366   DOF  2
   INSTANCE: ELASTIC-PLASTIC-PLATE-1                                                         
          THE FORCE     EQUILIBRIUM EQUATIONS HAVE CONVERGED

 AVERAGE HEAT FLUX                  4.280E-12   TIME AVG. HEAT FLUX   1.000E-02
 LARGEST RESIDUAL HEAT FLUX        -2.746E-12   AT NODE       2672   DOF 11
   INSTANCE: ELASTIC-PLASTIC-PLATE-1                                                         
 LARGEST INCREMENT OF TEMP.        -4.743E-02   AT NODE        251   DOF 11
   INSTANCE: ELASTIC-PLASTIC-PLATE-1                                                         
 LARGEST CORRECTION TO TEMP.       -6.031E-03   AT NODE       1301   DOF 11
   INSTANCE: ELASTIC-PLASTIC-PLATE-1                                                         
          THERE IS ZERO HEAT FLUX EVERYWHERE
 

 ***WARNING: THERE IS ZERO HEAT FLUX EVERYWHERE IN THE MODEL BASED ON THE 
             DEFAULT CRITERION. PLEASE CHECK THE VALUE OF THE AVERAGE HEAT FLUX 
             DURING THE CURRENT ITERATION TO VERIFY THAT THE HEAT FLUX IS SMALL 
             ENOUGH TO BE TREATED AS ZERO. IF NOT, PLEASE USE THE SOLUTION 
             CONTROLS TO RESET THE CRITERION FOR ZERO HEAT FLUX.

 ITERATION SUMMARY FOR THE INCREMENT:   1 TOTAL ITERATIONS, OF WHICH
   0 ARE SEVERE DISCONTINUITY ITERATIONS AND  1 ARE EQUILIBRIUM ITERATIONS.

 TIME INCREMENT COMPLETED  1.000E+03,  FRACTION OF STEP COMPLETED  0.980    
 STEP TIME COMPLETED       9.800E+04,  TOTAL TIME COMPLETED        9.800E+04


  INCREMENT    99 STARTS. ATTEMPT NUMBER  1, TIME INCREMENT  1.000E+03
 
	UNSYMMETRIC NEW DIRECT SPARSE SOLVER RUNNING ON
 	1 HOST x 1 MPI RANK PER HOST x 4 THREADS PER RANK
        NUMBER OF EQUATIONS:  32172
        NUMBER OF RHS:        1
        NUMBER OF FLOPS:      1.373e+09
        SOLVER ELAPSED TIME:  32ms

               CONVERGENCE CHECKS FOR EQUILIBRIUM ITERATION     1


 AVERAGE FORCE                      7.995E+04   TIME AVG. FORCE       5.750E+04
 LARGEST SCALED RESIDUAL FORCE      -3.97       AT NODE       9679   DOF  2
   INSTANCE: ELASTIC-PLASTIC-PLATE-1                                                         
  CORRESPONDING RESIDUAL FORCE      -3.97    
 LARGEST INCREMENT OF DISP.         6.308E-06   AT NODE          5   DOF  2
   INSTANCE: ELASTIC-PLASTIC-PLATE-1                                                         
 LARGEST CORRECTION TO DISP.       -5.194E-09   AT NODE       8124   DOF  2
   INSTANCE: ELASTIC-PLASTIC-PLATE-1                                                         
          THE FORCE     EQUILIBRIUM EQUATIONS HAVE CONVERGED

 AVERAGE HEAT FLUX                  4.291E-12   TIME AVG. HEAT FLUX   1.000E-02
 LARGEST RESIDUAL HEAT FLUX        -2.927E-12   AT NODE       2672   DOF 11
   INSTANCE: ELASTIC-PLASTIC-PLATE-1                                                         
 LARGEST INCREMENT OF TEMP.        -4.734E-02   AT NODE        251   DOF 11
   INSTANCE: ELASTIC-PLASTIC-PLATE-1                                                         
 LARGEST CORRECTION TO TEMP.       -8.192E-03   AT NODE       3459   DOF 11
   INSTANCE: ELASTIC-PLASTIC-PLATE-1                                                         
          THERE IS ZERO HEAT FLUX EVERYWHERE
 

 ***WARNING: THERE IS ZERO HEAT FLUX EVERYWHERE IN THE MODEL BASED ON THE 
             DEFAULT CRITERION. PLEASE CHECK THE VALUE OF THE AVERAGE HEAT FLUX 
             DURING THE CURRENT ITERATION TO VERIFY THAT THE HEAT FLUX IS SMALL 
             ENOUGH TO BE TREATED AS ZERO. IF NOT, PLEASE USE THE SOLUTION 
             CONTROLS TO RESET THE CRITERION FOR ZERO HEAT FLUX.

 ITERATION SUMMARY FOR THE INCREMENT:   1 TOTAL ITERATIONS, OF WHICH
   0 ARE SEVERE DISCONTINUITY ITERATIONS AND  1 ARE EQUILIBRIUM ITERATIONS.

 TIME INCREMENT COMPLETED  1.000E+03,  FRACTION OF STEP COMPLETED  0.990    
 STEP TIME COMPLETED       9.900E+04,  TOTAL TIME COMPLETED        9.900E+04


  INCREMENT   100 STARTS. ATTEMPT NUMBER  1, TIME INCREMENT  1.000E+03
 
	UNSYMMETRIC NEW DIRECT SPARSE SOLVER RUNNING ON
 	1 HOST x 1 MPI RANK PER HOST x 4 THREADS PER RANK
        NUMBER OF EQUATIONS:  32172
        NUMBER OF RHS:        1
        NUMBER OF FLOPS:      1.373e+09
        SOLVER ELAPSED TIME:  30ms

               CONVERGENCE CHECKS FOR EQUILIBRIUM ITERATION     1


 AVERAGE FORCE                      8.017E+04   TIME AVG. FORCE       5.773E+04
 LARGEST SCALED RESIDUAL FORCE      -196.       AT NODE       7882   DOF  2
   INSTANCE: ELASTIC-PLASTIC-PLATE-1                                                         
  CORRESPONDING RESIDUAL FORCE      -196.    
 LARGEST INCREMENT OF DISP.         6.307E-06   AT NODE          5   DOF  2
   INSTANCE: ELASTIC-PLASTIC-PLATE-1                                                         
 LARGEST CORRECTION TO DISP.        5.690E-09   AT NODE       8245   DOF  2
   INSTANCE: ELASTIC-PLASTIC-PLATE-1                                                         
          THE FORCE     EQUILIBRIUM EQUATIONS HAVE CONVERGED

 AVERAGE HEAT FLUX                  4.304E-12   TIME AVG. HEAT FLUX   1.000E-02
 LARGEST RESIDUAL HEAT FLUX        -2.913E-12   AT NODE       2672   DOF 11
   INSTANCE: ELASTIC-PLASTIC-PLATE-1                                                         
 LARGEST INCREMENT OF TEMP.        -4.681E-02   AT NODE        251   DOF 11
   INSTANCE: ELASTIC-PLASTIC-PLATE-1                                                         
 LARGEST CORRECTION TO TEMP.       -9.127E-03   AT NODE       3424   DOF 11
   INSTANCE: ELASTIC-PLASTIC-PLATE-1                                                         
          THERE IS ZERO HEAT FLUX EVERYWHERE
 

 ***WARNING: THERE IS ZERO HEAT FLUX EVERYWHERE IN THE MODEL BASED ON THE 
             DEFAULT CRITERION. PLEASE CHECK THE VALUE OF THE AVERAGE HEAT FLUX 
             DURING THE CURRENT ITERATION TO VERIFY THAT THE HEAT FLUX IS SMALL 
             ENOUGH TO BE TREATED AS ZERO. IF NOT, PLEASE USE THE SOLUTION 
             CONTROLS TO RESET THE CRITERION FOR ZERO HEAT FLUX.

 ITERATION SUMMARY FOR THE INCREMENT:   1 TOTAL ITERATIONS, OF WHICH
   0 ARE SEVERE DISCONTINUITY ITERATIONS AND  1 ARE EQUILIBRIUM ITERATIONS.

 TIME INCREMENT COMPLETED  1.000E+03,  FRACTION OF STEP COMPLETED   1.00    
 STEP TIME COMPLETED       1.000E+05,  TOTAL TIME COMPLETED        1.000E+05


          THE ANALYSIS HAS BEEN COMPLETED



     ANALYSIS SUMMARY:
     TOTAL OF        100  INCREMENTS
                       0  CUTBACKS IN AUTOMATIC INCREMENTATION
                     168  ITERATIONS INCLUDING CONTACT ITERATIONS IF PRESENT
                     168  PASSES THROUGH THE EQUATION SOLVER OF WHICH 
                     168  INVOLVE MATRIX DECOMPOSITION, INCLUDING
                       0  DECOMPOSITION(S) OF THE MASS MATRIX
                       1  REORDERING OF EQUATIONS TO MINIMIZE WAVEFRONT
                       0  ADDITIONAL RESIDUAL EVALUATIONS FOR LINE SEARCHES
                       0  ADDITIONAL OPERATOR EVALUATIONS FOR LINE SEARCHES
                       1  WARNING MESSAGES DURING USER INPUT PROCESSING
                  779016  WARNING MESSAGES DURING ANALYSIS
                  778848  ANALYSIS WARNINGS ARE NUMERICAL PROBLEM MESSAGES
                       0  ANALYSIS WARNINGS ARE NEGATIVE EIGENVALUE MESSAGES
                       0  ERROR MESSAGES



     JOB TIME SUMMARY
       USER TIME (SEC)      =      52.    
       SYSTEM TIME (SEC)    =      8.0    
       TOTAL CPU TIME (SEC) =      60.    
       WALLCLOCK TIME (SEC) =           35
       MEMORY PEAK (GB)     =            0
