1

   Abaqus 2023                                  Date 08-Dec-2024   Time 19:31:53
   For use by CSC_ IT CENTER FOR SCIENCE LTD under license from Dassault Systemes or its subsidiary.

                                                                                 
                                                                                 
 STEP    1     INCREMENT     1     STEP TIME    0.00    


                        S T E P       1     C O U P L E D - T E M P E R A T U R E - D I S P L A C E M E N T   A N A L Y S I S


                                                                                          

          FIXED TIME INCREMENTS
          TIME INCREMENT IS                                     360.    
          TIME PERIOD IS                                       1.800E+03

          CREEP AND SWELLING EFFECTS ARE OMITTED IN THIS STEP
          THE RATE DEPENDENCY WILL BE CONSIDERED IN THIS STEP

          CREEP AND SWELLING EFFECTS WILL BE IGNORED.

 CONVERGENCE TOLERANCE PARAMETERS FOR FORCE    
     CRITERION FOR RESIDUAL FORCE     FOR A NONLINEAR PROBLEM          5.000E-03
     CRITERION FOR DISP.    CORRECTION IN A NONLINEAR PROBLEM          1.000E-02
     INITIAL VALUE OF TIME AVERAGE FORCE                               1.000E-02
     AVERAGE FORCE     IS TIME AVERAGE FORCE    
     ALTERNATE CRIT. FOR RESIDUAL FORCE     FOR A NONLINEAR PROBLEM    2.000E-02
     CRITERION FOR ZERO FORCE     RELATIVE TO TIME AVRG. FORCE         1.000E-05
     CRITERION FOR RESIDUAL FORCE     WHEN THERE IS ZERO FLUX          1.000E-05
     CRITERION FOR DISP.    CORRECTION WHEN THERE IS ZERO FLUX         1.000E-03
     CRITERION FOR RESIDUAL FORCE     FOR A LINEAR INCREMENT           1.000E-08
     FIELD CONVERSION RATIO                                             1.00    
     CRITERION FOR ZERO FORCE     REL. TO TIME AVRG. MAX. FORCE        1.000E-05
     CRITERION FOR ZERO DISP.    RELATIVE TO CHARACTERISTIC LENGTH     1.000E-08

 CONVERGENCE TOLERANCE PARAMETERS FOR HEAT FLUX
     CRITERION FOR RESIDUAL HEAT FLUX FOR A NONLINEAR PROBLEM          5.000E-03
     CRITERION FOR TEMP.    CORRECTION IN A NONLINEAR PROBLEM          1.000E-02
     INITIAL VALUE OF TIME AVERAGE HEAT FLUX                           1.000E-02
     AVERAGE HEAT FLUX IS TIME AVERAGE HEAT FLUX
     ALTERNATE CRIT. FOR RESIDUAL HEAT FLUX FOR A NONLINEAR PROBLEM    2.000E-02
     CRITERION FOR ZERO HEAT FLUX RELATIVE TO TIME AVRG. HEAT FLUX     1.000E-05
     CRITERION FOR RESIDUAL HEAT FLUX WHEN THERE IS ZERO FLUX          1.000E-05
     CRITERION FOR TEMP.    CORRECTION WHEN THERE IS ZERO FLUX         1.000E-03
     CRITERION FOR RESIDUAL HEAT FLUX FOR A LINEAR INCREMENT           1.000E-08
     FIELD CONVERSION RATIO                                             1.00    
     CRITERION FOR ZERO HEAT FLUX REL. TO TIME AVRG. MAX. HEAT FLUX    1.000E-05

     VOLUMETRIC STRAIN COMPATIBILITY TOLERANCE FOR HYBRID SOLIDS       1.000E-05
     AXIAL STRAIN COMPATIBILITY TOLERANCE FOR HYBRID BEAMS             1.000E-05
     TRANS. SHEAR STRAIN COMPATIBILITY TOLERANCE FOR HYBRID BEAMS      1.000E-05
     SOFT CONTACT CONSTRAINT COMPATIBILITY TOLERANCE FOR P>P0          5.000E-03
     SOFT CONTACT CONSTRAINT COMPATIBILITY TOLERANCE FOR P=0.0         0.100    
     CONTACT FORCE ERROR TOLERANCE FOR CONVERT SDI=YES                 1.00    
     DISPLACEMENT COMPATIBILITY TOLERANCE FOR DCOUP ELEMENTS           1.000E-05
     ROTATION COMPATIBILITY TOLERANCE FOR DCOUP ELEMENTS               1.000E-05

 EQUILIBRIUM WILL BE CHECKED FOR SEVERE DISCONTINUITY ITERATIONS

 ITERATION CONTROL PARAMETERS:
     FIRST EQUILIBRIUM ITERATION FOR CONSECUTIVE DIVERGENCE CHECK              4
     EQUILIBRIUM ITERATION AFTER WHICH ALTERNATE RESIDUAL IS USED              9
     MAXIMUM EQUILIBRIUM ITERATIONS ALLOWED                                   16
     MAXIMUM ITERATIONS FOR SEVERE DISCONTINUITIES                            12
     GLOBAL STABILIZATION CONTROL IS NOT USED

          PRINT OF INCREMENT NUMBER, TIME, ETC., EVERY    1  INCREMENTS

     THE MAXIMUM NUMBER OF INCREMENTS IN THIS STEP IS                 1000000

          LARGE DISPLACEMENT THEORY WILL BE USED

          UNSYMMETRIC MATRIX STORAGE AND SOLUTION WILL BE USED

     LINEAR EXTRAPOLATION WILL BE USED

     CHARACTERISTIC ELEMENT LENGTH     1.414E-04

     DETAILS REGARDING ACTUAL SOLUTION WAVEFRONT REQUESTED

     DETAILED OUTPUT OF DIAGNOSTICS TO DATABASE REQUESTED

     PRINT OF INCREMENT NUMBER, TIME, ETC., TO THE MESSAGE FILE EVERY     1  INCREMENTS

     ELEMENT OPERATIONS WILL BE CARRIED OUT IN PARALLEL USING   8 THREADS ON 1 DOMAIN

     PARALLEL CONTACT TRACKING ENABLED


     COLLECTING MODEL CONSTRAINT INFORMATION FOR OVERCONSTRAINT CHECKS

     COLLECTING STEP CONSTRAINT INFORMATION FOR OVERCONSTRAINT CHECKS


  INCREMENT     1 STARTS. ATTEMPT NUMBER  1, TIME INCREMENT   360.    
 
     INITIAL ELEMENT LOAD BALANCE
            DOMAIN    1     THREAD    NUMBER OF ELEMENTS
                              1            15064
                              2            15102
                              3            15240
                              4            15208
                              5            15232
                              6            15136
                              7            15288
                              8            15240
 
	UNSYMMETRIC DIRECT SPARSE SOLVER RUNNING ON
 	1 HOST:        1 MPI RANK  x 8 THREADS
 	NUMBER OF EQUATIONS:     550572
 	NUMBER OF RHS:           1
 	NUMBER OF FLOPS:         3.723e+12

     CHECK POINT  START OF SOLVER     

     CHECK POINT  END OF SOLVER       

       ELAPSED USER TIME (SEC)      =   114.43    
       ELAPSED SYSTEM TIME (SEC)    =   4.9700    
       ELAPSED TOTAL CPU TIME (SEC) =   119.40    
       ELAPSED WALLCLOCK TIME (SEC) =           15

               CONVERGENCE CHECKS FOR EQUILIBRIUM ITERATION     1


 AVERAGE FORCE                       0.00       TIME AVG. FORCE       1.000E-02
 ALL FORCE     RESIDUALS ARE ZERO
 ALL DISP.    INCREMENTS ARE ZERO
 ALL CORRECTION TO DISP.    ARE ZERO
          THERE IS ZERO FORCE     EVERYWHERE

 AVERAGE HEAT FLUX                  6.124E-14   TIME AVG. HEAT FLUX   1.000E-02
 LARGEST RESIDUAL HEAT FLUX         5.988E-16   AT NODE       7312   DOF 11
   INSTANCE: SH115                                                                           
 LARGEST INCREMENT OF TEMP.          8.66       AT NODE          1   DOF 11
   INSTANCE: SH115                                                                           
 LARGEST CORRECTION TO TEMP.         8.66       AT NODE          1   DOF 11
   INSTANCE: SH115                                                                           
          THERE IS ZERO HEAT FLUX EVERYWHERE
 

 ***WARNING: THERE IS ZERO HEAT FLUX EVERYWHERE IN THE MODEL BASED ON THE 
             DEFAULT CRITERION. PLEASE CHECK THE VALUE OF THE AVERAGE HEAT FLUX 
             DURING THE CURRENT ITERATION TO VERIFY THAT THE HEAT FLUX IS SMALL 
             ENOUGH TO BE TREATED AS ZERO. IF NOT, PLEASE USE THE SOLUTION 
             CONTROLS TO RESET THE CRITERION FOR ZERO HEAT FLUX.

 ITERATION SUMMARY FOR THE INCREMENT:   1 TOTAL ITERATIONS, OF WHICH
   0 ARE SEVERE DISCONTINUITY ITERATIONS AND  1 ARE EQUILIBRIUM ITERATIONS.

 TIME INCREMENT COMPLETED   360.    ,  FRACTION OF STEP COMPLETED  0.200    
 STEP TIME COMPLETED        360.    ,  TOTAL TIME COMPLETED         360.    


  INCREMENT     2 STARTS. ATTEMPT NUMBER  1, TIME INCREMENT   360.    
 
	UNSYMMETRIC DIRECT SPARSE SOLVER RUNNING ON
 	1 HOST:        1 MPI RANK  x 8 THREADS
 	NUMBER OF EQUATIONS:     550572
 	NUMBER OF RHS:           1
 	NUMBER OF FLOPS:         3.723e+12

     CHECK POINT  START OF SOLVER     

     CHECK POINT  END OF SOLVER       

       ELAPSED USER TIME (SEC)      =   114.03    
       ELAPSED SYSTEM TIME (SEC)    =  0.46000    
       ELAPSED TOTAL CPU TIME (SEC) =   114.49    
       ELAPSED WALLCLOCK TIME (SEC) =           15

               CONVERGENCE CHECKS FOR EQUILIBRIUM ITERATION     1


 AVERAGE FORCE                       0.00       TIME AVG. FORCE       1.000E-02
 ALL FORCE     RESIDUALS ARE ZERO
 ALL DISP.    INCREMENTS ARE ZERO
 ALL CORRECTION TO DISP.    ARE ZERO
          THERE IS ZERO FORCE     EVERYWHERE

 AVERAGE HEAT FLUX                  4.116E-14   TIME AVG. HEAT FLUX   1.000E-02
 LARGEST RESIDUAL HEAT FLUX        -1.337E-16   AT NODE       7315   DOF 11
   INSTANCE: SH115                                                                           
 LARGEST INCREMENT OF TEMP.          2.21       AT NODE      47744   DOF 11
   INSTANCE: SH115                                                                           
 LARGEST CORRECTION TO TEMP.        -8.66       AT NODE          1   DOF 11
   INSTANCE: SH115                                                                           
          THERE IS ZERO HEAT FLUX EVERYWHERE
 

 ***WARNING: THERE IS ZERO HEAT FLUX EVERYWHERE IN THE MODEL BASED ON THE 
             DEFAULT CRITERION. PLEASE CHECK THE VALUE OF THE AVERAGE HEAT FLUX 
             DURING THE CURRENT ITERATION TO VERIFY THAT THE HEAT FLUX IS SMALL 
             ENOUGH TO BE TREATED AS ZERO. IF NOT, PLEASE USE THE SOLUTION 
             CONTROLS TO RESET THE CRITERION FOR ZERO HEAT FLUX.

 ITERATION SUMMARY FOR THE INCREMENT:   1 TOTAL ITERATIONS, OF WHICH
   0 ARE SEVERE DISCONTINUITY ITERATIONS AND  1 ARE EQUILIBRIUM ITERATIONS.

 TIME INCREMENT COMPLETED   360.    ,  FRACTION OF STEP COMPLETED  0.400    
 STEP TIME COMPLETED        720.    ,  TOTAL TIME COMPLETED         720.    


  INCREMENT     3 STARTS. ATTEMPT NUMBER  1, TIME INCREMENT   360.    
 
	UNSYMMETRIC DIRECT SPARSE SOLVER RUNNING ON
 	1 HOST:        1 MPI RANK  x 8 THREADS
 	NUMBER OF EQUATIONS:     550572
 	NUMBER OF RHS:           1
 	NUMBER OF FLOPS:         3.723e+12

     CHECK POINT  START OF SOLVER     

     CHECK POINT  END OF SOLVER       

       ELAPSED USER TIME (SEC)      =   114.37    
       ELAPSED SYSTEM TIME (SEC)    =  0.47000    
       ELAPSED TOTAL CPU TIME (SEC) =   114.84    
       ELAPSED WALLCLOCK TIME (SEC) =           15

               CONVERGENCE CHECKS FOR EQUILIBRIUM ITERATION     1


 AVERAGE FORCE                       0.00       TIME AVG. FORCE       1.000E-02
 ALL FORCE     RESIDUALS ARE ZERO
 ALL DISP.    INCREMENTS ARE ZERO
 ALL CORRECTION TO DISP.    ARE ZERO
          THERE IS ZERO FORCE     EVERYWHERE

 AVERAGE HEAT FLUX                  3.126E-14   TIME AVG. HEAT FLUX   1.000E-02
 LARGEST RESIDUAL HEAT FLUX        -1.938E-17   AT NODE       7313   DOF 11
   INSTANCE: SH115                                                                           
 LARGEST INCREMENT OF TEMP.          1.58       AT NODE      86834   DOF 11
   INSTANCE: SH115                                                                           
 LARGEST CORRECTION TO TEMP.        -1.17       AT NODE      52149   DOF 11
   INSTANCE: SH115                                                                           
          THERE IS ZERO HEAT FLUX EVERYWHERE
 

 ***WARNING: THERE IS ZERO HEAT FLUX EVERYWHERE IN THE MODEL BASED ON THE 
             DEFAULT CRITERION. PLEASE CHECK THE VALUE OF THE AVERAGE HEAT FLUX 
             DURING THE CURRENT ITERATION TO VERIFY THAT THE HEAT FLUX IS SMALL 
             ENOUGH TO BE TREATED AS ZERO. IF NOT, PLEASE USE THE SOLUTION 
             CONTROLS TO RESET THE CRITERION FOR ZERO HEAT FLUX.

 ITERATION SUMMARY FOR THE INCREMENT:   1 TOTAL ITERATIONS, OF WHICH
   0 ARE SEVERE DISCONTINUITY ITERATIONS AND  1 ARE EQUILIBRIUM ITERATIONS.

 TIME INCREMENT COMPLETED   360.    ,  FRACTION OF STEP COMPLETED  0.600    
 STEP TIME COMPLETED       1.080E+03,  TOTAL TIME COMPLETED        1.080E+03


  INCREMENT     4 STARTS. ATTEMPT NUMBER  1, TIME INCREMENT   360.    
 
	UNSYMMETRIC DIRECT SPARSE SOLVER RUNNING ON
 	1 HOST:        1 MPI RANK  x 8 THREADS
 	NUMBER OF EQUATIONS:     550572
 	NUMBER OF RHS:           1
 	NUMBER OF FLOPS:         3.723e+12

     CHECK POINT  START OF SOLVER     

     CHECK POINT  END OF SOLVER       

       ELAPSED USER TIME (SEC)      =   114.30    
       ELAPSED SYSTEM TIME (SEC)    =  0.44000    
       ELAPSED TOTAL CPU TIME (SEC) =   114.74    
       ELAPSED WALLCLOCK TIME (SEC) =           14

               CONVERGENCE CHECKS FOR EQUILIBRIUM ITERATION     1


 AVERAGE FORCE                       0.00       TIME AVG. FORCE       1.000E-02
 ALL FORCE     RESIDUALS ARE ZERO
 ALL DISP.    INCREMENTS ARE ZERO
 ALL CORRECTION TO DISP.    ARE ZERO
          THERE IS ZERO FORCE     EVERYWHERE

 AVERAGE HEAT FLUX                  2.348E-14   TIME AVG. HEAT FLUX   1.000E-02
 LARGEST RESIDUAL HEAT FLUX        -9.251E-18   AT NODE       4524   DOF 11
   INSTANCE: SH115                                                                           
 LARGEST INCREMENT OF TEMP.          1.18       AT NODE      86118   DOF 11
   INSTANCE: SH115                                                                           
 LARGEST CORRECTION TO TEMP.       -0.540       AT NODE      45424   DOF 11
   INSTANCE: SH115                                                                           
          THERE IS ZERO HEAT FLUX EVERYWHERE
 

 ***WARNING: THERE IS ZERO HEAT FLUX EVERYWHERE IN THE MODEL BASED ON THE 
             DEFAULT CRITERION. PLEASE CHECK THE VALUE OF THE AVERAGE HEAT FLUX 
             DURING THE CURRENT ITERATION TO VERIFY THAT THE HEAT FLUX IS SMALL 
             ENOUGH TO BE TREATED AS ZERO. IF NOT, PLEASE USE THE SOLUTION 
             CONTROLS TO RESET THE CRITERION FOR ZERO HEAT FLUX.

 ITERATION SUMMARY FOR THE INCREMENT:   1 TOTAL ITERATIONS, OF WHICH
   0 ARE SEVERE DISCONTINUITY ITERATIONS AND  1 ARE EQUILIBRIUM ITERATIONS.

 TIME INCREMENT COMPLETED   360.    ,  FRACTION OF STEP COMPLETED  0.800    
 STEP TIME COMPLETED       1.440E+03,  TOTAL TIME COMPLETED        1.440E+03


  INCREMENT     5 STARTS. ATTEMPT NUMBER  1, TIME INCREMENT   360.    
 
	UNSYMMETRIC DIRECT SPARSE SOLVER RUNNING ON
 	1 HOST:        1 MPI RANK  x 8 THREADS
 	NUMBER OF EQUATIONS:     550572
 	NUMBER OF RHS:           1
 	NUMBER OF FLOPS:         3.723e+12

     CHECK POINT  START OF SOLVER     

     CHECK POINT  END OF SOLVER       

       ELAPSED USER TIME (SEC)      =   113.86    
       ELAPSED SYSTEM TIME (SEC)    =  0.42000    
       ELAPSED TOTAL CPU TIME (SEC) =   114.28    
       ELAPSED WALLCLOCK TIME (SEC) =           14

               CONVERGENCE CHECKS FOR EQUILIBRIUM ITERATION     1


 AVERAGE FORCE                       0.00       TIME AVG. FORCE       1.000E-02
 ALL FORCE     RESIDUALS ARE ZERO
 ALL DISP.    INCREMENTS ARE ZERO
 ALL CORRECTION TO DISP.    ARE ZERO
          THERE IS ZERO FORCE     EVERYWHERE

 AVERAGE HEAT FLUX                  1.757E-14   TIME AVG. HEAT FLUX   1.000E-02
 LARGEST RESIDUAL HEAT FLUX        -5.797E-18   AT NODE       4161   DOF 11
   INSTANCE: SH115                                                                           
 LARGEST INCREMENT OF TEMP.         0.878       AT NODE      39553   DOF 11
   INSTANCE: SH115                                                                           
 LARGEST CORRECTION TO TEMP.       -0.360       AT NODE      85987   DOF 11
   INSTANCE: SH115                                                                           
          THERE IS ZERO HEAT FLUX EVERYWHERE
 

 ***WARNING: THERE IS ZERO HEAT FLUX EVERYWHERE IN THE MODEL BASED ON THE 
             DEFAULT CRITERION. PLEASE CHECK THE VALUE OF THE AVERAGE HEAT FLUX 
             DURING THE CURRENT ITERATION TO VERIFY THAT THE HEAT FLUX IS SMALL 
             ENOUGH TO BE TREATED AS ZERO. IF NOT, PLEASE USE THE SOLUTION 
             CONTROLS TO RESET THE CRITERION FOR ZERO HEAT FLUX.

 ITERATION SUMMARY FOR THE INCREMENT:   1 TOTAL ITERATIONS, OF WHICH
   0 ARE SEVERE DISCONTINUITY ITERATIONS AND  1 ARE EQUILIBRIUM ITERATIONS.

 TIME INCREMENT COMPLETED   360.    ,  FRACTION OF STEP COMPLETED   1.00    
 STEP TIME COMPLETED       1.800E+03,  TOTAL TIME COMPLETED        1.800E+03
1

   Abaqus 2023                                  Date 08-Dec-2024   Time 19:33:54
   For use by CSC_ IT CENTER FOR SCIENCE LTD under license from Dassault Systemes or its subsidiary.

                                                                                 
                                                                                 
 STEP    2     INCREMENT     1     STEP TIME    0.00    


                        S T E P       2     C O U P L E D - T E M P E R A T U R E - D I S P L A C E M E N T   A N A L Y S I S


                                                                                          

     AUTOMATIC TIME CONTROL WITH -
          A SUGGESTED INITIAL TIME INCREMENT OF                 8.85    
          AND A TOTAL TIME PERIOD OF                            885.    
          THE MINIMUM TIME INCREMENT ALLOWED IS                1.000E-07
          THE MAXIMUM TIME INCREMENT ALLOWED IS                 8.85    

          CREEP AND SWELLING EFFECTS ARE OMITTED IN THIS STEP

     THE SIZE OF THE TIME INCREMENT IS CONTROLLED BY -
          THE TEMPERATURE CHANGE PER INCREMENT NOT EXCEEDING           1.000E+03
          THE RATE DEPENDENCY WILL BE CONSIDERED IN THIS STEP

          CREEP AND SWELLING EFFECTS WILL BE IGNORED.

 CONVERGENCE TOLERANCE PARAMETERS FOR FORCE    
     CRITERION FOR RESIDUAL FORCE     FOR A NONLINEAR PROBLEM          5.000E-03
     CRITERION FOR DISP.    CORRECTION IN A NONLINEAR PROBLEM          1.000E-02
     INIT. VALUE OF TIME AVG. FORCE     IS TIME AVG. FORCE     IN PREVIOUS STEP
     AVERAGE FORCE     IS TIME AVERAGE FORCE    
     ALTERNATE CRIT. FOR RESIDUAL FORCE     FOR A NONLINEAR PROBLEM    2.000E-02
     CRITERION FOR ZERO FORCE     RELATIVE TO TIME AVRG. FORCE         1.000E-05
     CRITERION FOR RESIDUAL FORCE     WHEN THERE IS ZERO FLUX          1.000E-05
     CRITERION FOR DISP.    CORRECTION WHEN THERE IS ZERO FLUX         1.000E-03
     CRITERION FOR RESIDUAL FORCE     FOR A LINEAR INCREMENT           1.000E-08
     FIELD CONVERSION RATIO                                             1.00    
     CRITERION FOR ZERO FORCE     REL. TO TIME AVRG. MAX. FORCE        1.000E-05
     CRITERION FOR ZERO DISP.    RELATIVE TO CHARACTERISTIC LENGTH     1.000E-08

 CONVERGENCE TOLERANCE PARAMETERS FOR HEAT FLUX
     CRITERION FOR RESIDUAL HEAT FLUX FOR A NONLINEAR PROBLEM          5.000E-03
     CRITERION FOR TEMP.    CORRECTION IN A NONLINEAR PROBLEM          1.000E-02
     INIT. VALUE OF TIME AVG. HEAT FLUX IS TIME AVG. HEAT FLUX IN PREVIOUS STEP
     AVERAGE HEAT FLUX IS TIME AVERAGE HEAT FLUX
     ALTERNATE CRIT. FOR RESIDUAL HEAT FLUX FOR A NONLINEAR PROBLEM    2.000E-02
     CRITERION FOR ZERO HEAT FLUX RELATIVE TO TIME AVRG. HEAT FLUX     1.000E-05
     CRITERION FOR RESIDUAL HEAT FLUX WHEN THERE IS ZERO FLUX          1.000E-05
     CRITERION FOR TEMP.    CORRECTION WHEN THERE IS ZERO FLUX         1.000E-03
     CRITERION FOR RESIDUAL HEAT FLUX FOR A LINEAR INCREMENT           1.000E-08
     FIELD CONVERSION RATIO                                             1.00    
     CRITERION FOR ZERO HEAT FLUX REL. TO TIME AVRG. MAX. HEAT FLUX    1.000E-05

     VOLUMETRIC STRAIN COMPATIBILITY TOLERANCE FOR HYBRID SOLIDS       1.000E-05
     AXIAL STRAIN COMPATIBILITY TOLERANCE FOR HYBRID BEAMS             1.000E-05
     TRANS. SHEAR STRAIN COMPATIBILITY TOLERANCE FOR HYBRID BEAMS      1.000E-05
     SOFT CONTACT CONSTRAINT COMPATIBILITY TOLERANCE FOR P>P0          5.000E-03
     SOFT CONTACT CONSTRAINT COMPATIBILITY TOLERANCE FOR P=0.0         0.100    
     CONTACT FORCE ERROR TOLERANCE FOR CONVERT SDI=YES                 1.00    
     DISPLACEMENT COMPATIBILITY TOLERANCE FOR DCOUP ELEMENTS           1.000E-05
     ROTATION COMPATIBILITY TOLERANCE FOR DCOUP ELEMENTS               1.000E-05

 EQUILIBRIUM WILL BE CHECKED FOR SEVERE DISCONTINUITY ITERATIONS

 TIME INCREMENTATION CONTROL PARAMETERS:
     FIRST EQUILIBRIUM ITERATION FOR CONSECUTIVE DIVERGENCE CHECK              4
     EQUILIBRIUM ITERATION AT WHICH LOG. CONVERGENCE RATE CHECK BEGINS         8
     EQUILIBRIUM ITERATION AFTER WHICH ALTERNATE RESIDUAL IS USED              9
     MAXIMUM EQUILIBRIUM ITERATIONS ALLOWED                                   16
     EQUILIBRIUM ITERATION COUNT FOR CUT-BACK IN NEXT INCREMENT               10
     MAXIMUM EQUILIB. ITERS IN TWO INCREMENTS FOR TIME INCREMENT INCREASE      4
     MAXIMUM ITERATIONS FOR SEVERE DISCONTINUITIES                            50
     MAXIMUM ATTEMPTS ALLOWED IN AN INCREMENT                                  5
     MAXIMUM DISCON. ITERS IN TWO INCREMENTS FOR TIME INCREMENT INCREASE      50
     MAXIMUM CONTACT AUGMENTATIONS FOR *SURFACE BEHAVIOR,AUGMENTED LAGRANGE   50
     CONSECUTIVE INCS MEETING TIME INTEG. TOL. FOR TIME INC. INCREASE          3
     CUT-BACK FACTOR AFTER DIVERGENCE                                 0.2500    
     CUT-BACK FACTOR FOR TOO SLOW CONVERGENCE                         0.5000    
     CUT-BACK FACTOR AFTER TOO MANY EQUILIBRIUM ITERATIONS            0.7500    
     CUT-BACK FACTOR AFTER TOO MANY SEVERE DISCONTINUITY ITERATIONS   0.2500    
     CUT-BACK FACTOR AFTER PROBLEMS IN ELEMENT ASSEMBLY               0.2500    
     INCREASE FACTOR AFTER TWO INCREMENTS THAT CONVERGE QUICKLY        1.500    
     MAX. TIME INCREMENT INCREASE FACTOR ALLOWED                       1.500    
     MAX. TIME INCREMENT INCREASE FACTOR ALLOWED (DYNAMICS)            1.250    
     MAX. TIME INCREMENT INCREASE FACTOR ALLOWED (DIFFUSION)           2.000    
     MINIMUM TIME INCREMENT RATIO FOR EXTRAPOLATION TO OCCUR          0.1000    
     CUT-BACK FACTOR WHEN TIME INTEGRATION ACCURACY TOL. EXCEEDED     0.8500    
     MAX. RATIO OF TIME INTEG. MEASURE TO TOL. FOR TIME INC. INCREASE 0.7500    
     INCREASE FACTOR FOR TIME INCREMENT WHEN POSSIBLE                 0.8000    
     MIN. TIME INC. INCREASE FACTOR IN LINEAR TRANSIENT PROBLEMS      0.9500    
     MAX. RATIO OF TIME INCREMENT TO STABILITY LIMIT                   1.000    
     FRACTION OF STABILITY LIMIT FOR NEW TIME INCREMENT               0.9500    
     TIME INCREMENT INCREASE FACTOR BEFORE A TIME POINT                1.000    
     GLOBAL STABILIZATION CONTROL IS NOT USED

          PRINT OF INCREMENT NUMBER, TIME, ETC., EVERY    1  INCREMENTS

     THE MAXIMUM NUMBER OF INCREMENTS IN THIS STEP IS                 1000000

          LARGE DISPLACEMENT THEORY WILL BE USED

          UNSYMMETRIC MATRIX STORAGE AND SOLUTION WILL BE USED

     LINEAR EXTRAPOLATION WILL BE USED

     CHARACTERISTIC ELEMENT LENGTH     1.414E-04

     DETAILS REGARDING ACTUAL SOLUTION WAVEFRONT REQUESTED

     DETAILED OUTPUT OF DIAGNOSTICS TO DATABASE REQUESTED

     PRINT OF INCREMENT NUMBER, TIME, ETC., TO THE MESSAGE FILE EVERY     1  INCREMENTS

     ELEMENT OPERATIONS WILL BE CARRIED OUT IN PARALLEL USING   8 THREADS ON 1 DOMAIN

     COLLECTING STEP CONSTRAINT INFORMATION FOR OVERCONSTRAINT CHECKS


  INCREMENT     1 STARTS. ATTEMPT NUMBER  1, TIME INCREMENT   8.85    
 
     INITIAL ELEMENT LOAD BALANCE
            DOMAIN    1     THREAD    NUMBER OF ELEMENTS
                              1            15072
                              2            15094
                              3            15256
                              4            15168
                              5            15256
                              6            15224
                              7            15256
                              8            15184
 
	UNSYMMETRIC DIRECT SPARSE SOLVER RUNNING ON
 	1 HOST:        1 MPI RANK  x 8 THREADS
 	NUMBER OF EQUATIONS:     550572
 	NUMBER OF RHS:           1
 	NUMBER OF FLOPS:         3.723e+12

     CHECK POINT  START OF SOLVER     

     CHECK POINT  END OF SOLVER       

       ELAPSED USER TIME (SEC)      =   117.83    
       ELAPSED SYSTEM TIME (SEC)    =   4.8900    
       ELAPSED TOTAL CPU TIME (SEC) =   122.72    
       ELAPSED WALLCLOCK TIME (SEC) =           16

 ***WARNING: SOLVER PROBLEM.  ZERO PIVOT WHEN PROCESSING NODE 47775 INSTANCE 
             SH115 D.O.F. 11
  Typically a zero pivot is associated with an overconstraint in the model. 
 However, Abaqus was not able to identify any chains of constraints that might 
 lead to an overconstraint at this node. This suggests that the model might be 
 in fact insufficiently constrained in this particular degree of freedom. 
 Please check the constraints used in this model. 


 ***WARNING: SOLVER PROBLEM.  ZERO PIVOT WHEN PROCESSING NODE 45384 INSTANCE 
             SH115 D.O.F. 11
  Typically a zero pivot is associated with an overconstraint in the model. 
 However, Abaqus was not able to identify any chains of constraints that might 
 lead to an overconstraint at this node. This suggests that the model might be 
 in fact insufficiently constrained in this particular degree of freedom. 
 Please check the constraints used in this model. 


 ***WARNING: SOLVER PROBLEM.  ZERO PIVOT WHEN PROCESSING NODE 42993 INSTANCE 
             SH115 D.O.F. 11
  Typically a zero pivot is associated with an overconstraint in the model. 
 However, Abaqus was not able to identify any chains of constraints that might 
 lead to an overconstraint at this node. This suggests that the model might be 
 in fact insufficiently constrained in this particular degree of freedom. 
 Please check the constraints used in this model. 


 ***WARNING: SOLVER PROBLEM.  ZERO PIVOT WHEN PROCESSING NODE 49066 INSTANCE 
             SH115 D.O.F. 11
  Typically a zero pivot is associated with an overconstraint in the model. 
 However, Abaqus was not able to identify any chains of constraints that might 
 lead to an overconstraint at this node. This suggests that the model might be 
 in fact insufficiently constrained in this particular degree of freedom. 
 Please check the constraints used in this model. 


 ***WARNING: SOLVER PROBLEM.  ZERO PIVOT WHEN PROCESSING NODE 49065 INSTANCE 
             SH115 D.O.F. 11
  Typically a zero pivot is associated with an overconstraint in the model. 
 However, Abaqus was not able to identify any chains of constraints that might 
 lead to an overconstraint at this node. This suggests that the model might be 
 in fact insufficiently constrained in this particular degree of freedom. 
 Please check the constraints used in this model. 


 ***WARNING: SOLVER PROBLEM.  ZERO PIVOT WHEN PROCESSING NODE 49024 INSTANCE 
             SH115 D.O.F. 11
  Typically a zero pivot is associated with an overconstraint in the model. 
 However, Abaqus was not able to identify any chains of constraints that might 
 lead to an overconstraint at this node. This suggests that the model might be 
 in fact insufficiently constrained in this particular degree of freedom. 
 Please check the constraints used in this model. 


 ***WARNING: SOLVER PROBLEM.  ZERO PIVOT WHEN PROCESSING NODE 44284 INSTANCE 
             SH115 D.O.F. 11
  Typically a zero pivot is associated with an overconstraint in the model. 
 However, Abaqus was not able to identify any chains of constraints that might 
 lead to an overconstraint at this node. This suggests that the model might be 
 in fact insufficiently constrained in this particular degree of freedom. 
 Please check the constraints used in this model. 


 ***WARNING: SOLVER PROBLEM.  ZERO PIVOT WHEN PROCESSING NODE 44283 INSTANCE 
             SH115 D.O.F. 11
  Typically a zero pivot is associated with an overconstraint in the model. 
 However, Abaqus was not able to identify any chains of constraints that might 
 lead to an overconstraint at this node. This suggests that the model might be 
 in fact insufficiently constrained in this particular degree of freedom. 
 Please check the constraints used in this model. 


 ***WARNING: SOLVER PROBLEM.  ZERO PIVOT WHEN PROCESSING NODE 46675 INSTANCE 
             SH115 D.O.F. 11
  Typically a zero pivot is associated with an overconstraint in the model. 
 However, Abaqus was not able to identify any chains of constraints that might 
 lead to an overconstraint at this node. This suggests that the model might be 
 in fact insufficiently constrained in this particular degree of freedom. 
 Please check the constraints used in this model. 


 ***WARNING: SOLVER PROBLEM.  ZERO PIVOT WHEN PROCESSING NODE 44242 INSTANCE 
             SH115 D.O.F. 11
  Typically a zero pivot is associated with an overconstraint in the model. 
 However, Abaqus was not able to identify any chains of constraints that might 
 lead to an overconstraint at this node. This suggests that the model might be 
 in fact insufficiently constrained in this particular degree of freedom. 
 Please check the constraints used in this model. 


 ***WARNING: SOLVER PROBLEM.  ZERO PIVOT WHEN PROCESSING NODE 46633 INSTANCE 
             SH115 D.O.F. 11
  Typically a zero pivot is associated with an overconstraint in the model. 
 However, Abaqus was not able to identify any chains of constraints that might 
 lead to an overconstraint at this node. This suggests that the model might be 
 in fact insufficiently constrained in this particular degree of freedom. 
 Please check the constraints used in this model. 


 ***WARNING: SOLVER PROBLEM.  ZERO PIVOT WHEN PROCESSING NODE 46674 INSTANCE 
             SH115 D.O.F. 11
  Typically a zero pivot is associated with an overconstraint in the model. 
 However, Abaqus was not able to identify any chains of constraints that might 
 lead to an overconstraint at this node. This suggests that the model might be 
 in fact insufficiently constrained in this particular degree of freedom. 
 Please check the constraints used in this model. 


 ***WARNING: SOLVER PROBLEM.  ZERO PIVOT WHEN PROCESSING NODE 47922 INSTANCE 
             SH115 D.O.F. 11
  Typically a zero pivot is associated with an overconstraint in the model. 
 However, Abaqus was not able to identify any chains of constraints that might 
 lead to an overconstraint at this node. This suggests that the model might be 
 in fact insufficiently constrained in this particular degree of freedom. 
 Please check the constraints used in this model. 


 ***WARNING: SOLVER PROBLEM.  ZERO PIVOT WHEN PROCESSING NODE 45531 INSTANCE 
             SH115 D.O.F. 11
  Typically a zero pivot is associated with an overconstraint in the model. 
 However, Abaqus was not able to identify any chains of constraints that might 
 lead to an overconstraint at this node. This suggests that the model might be 
 in fact insufficiently constrained in this particular degree of freedom. 
 Please check the constraints used in this model. 


 ***WARNING: SOLVER PROBLEM.  ZERO PIVOT WHEN PROCESSING NODE 47935 INSTANCE 
             SH115 D.O.F. 11
  Typically a zero pivot is associated with an overconstraint in the model. 
 However, Abaqus was not able to identify any chains of constraints that might 
 lead to an overconstraint at this node. This suggests that the model might be 
 in fact insufficiently constrained in this particular degree of freedom. 
 Please check the constraints used in this model. 


 ***WARNING: SOLVER PROBLEM.  ZERO PIVOT WHEN PROCESSING NODE 45464 INSTANCE 
             SH115 D.O.F. 11
  Typically a zero pivot is associated with an overconstraint in the model. 
 However, Abaqus was not able to identify any chains of constraints that might 
 lead to an overconstraint at this node. This suggests that the model might be 
 in fact insufficiently constrained in this particular degree of freedom. 
 Please check the constraints used in this model. 


 ***WARNING: SOLVER PROBLEM.  ZERO PIVOT WHEN PROCESSING NODE 45544 INSTANCE 
             SH115 D.O.F. 11
  Typically a zero pivot is associated with an overconstraint in the model. 
 However, Abaqus was not able to identify any chains of constraints that might 
 lead to an overconstraint at this node. This suggests that the model might be 
 in fact insufficiently constrained in this particular degree of freedom. 
 Please check the constraints used in this model. 


 ***WARNING: SOLVER PROBLEM.  ZERO PIVOT WHEN PROCESSING NODE 47855 INSTANCE 
             SH115 D.O.F. 11
  Typically a zero pivot is associated with an overconstraint in the model. 
 However, Abaqus was not able to identify any chains of constraints that might 
 lead to an overconstraint at this node. This suggests that the model might be 
 in fact insufficiently constrained in this particular degree of freedom. 
 Please check the constraints used in this model. 


 ***WARNING: SOLVER PROBLEM.  ZERO PIVOT WHEN PROCESSING NODE 48001 INSTANCE 
             SH115 D.O.F. 11
  Typically a zero pivot is associated with an overconstraint in the model. 
 However, Abaqus was not able to identify any chains of constraints that might 
 lead to an overconstraint at this node. This suggests that the model might be 
 in fact insufficiently constrained in this particular degree of freedom. 
 Please check the constraints used in this model. 


 ***WARNING: SOLVER PROBLEM.  ZERO PIVOT WHEN PROCESSING NODE 45610 INSTANCE 
             SH115 D.O.F. 11
  Typically a zero pivot is associated with an overconstraint in the model. 
 However, Abaqus was not able to identify any chains of constraints that might 
 lead to an overconstraint at this node. This suggests that the model might be 
 in fact insufficiently constrained in this particular degree of freedom. 
 Please check the constraints used in this model. 


 ***WARNING: SOLVER PROBLEM.  ZERO PIVOT WHEN PROCESSING NODE 38403 INSTANCE 
             SH115 D.O.F. 11
  Typically a zero pivot is associated with an overconstraint in the model. 
 However, Abaqus was not able to identify any chains of constraints that might 
 lead to an overconstraint at this node. This suggests that the model might be 
 in fact insufficiently constrained in this particular degree of freedom. 
 Please check the constraints used in this model. 


 ***WARNING: SOLVER PROBLEM.  ZERO PIVOT WHEN PROCESSING NODE 33223 INSTANCE 
             SH115 D.O.F. 11
  Typically a zero pivot is associated with an overconstraint in the model. 
 However, Abaqus was not able to identify any chains of constraints that might 
 lead to an overconstraint at this node. This suggests that the model might be 
 in fact insufficiently constrained in this particular degree of freedom. 
 Please check the constraints used in this model. 


 ***WARNING: SOLVER PROBLEM.  ZERO PIVOT WHEN PROCESSING NODE 33222 INSTANCE 
             SH115 D.O.F. 11
  Typically a zero pivot is associated with an overconstraint in the model. 
 However, Abaqus was not able to identify any chains of constraints that might 
 lead to an overconstraint at this node. This suggests that the model might be 
 in fact insufficiently constrained in this particular degree of freedom. 
 Please check the constraints used in this model. 


 ***WARNING: SOLVER PROBLEM.  ZERO PIVOT WHEN PROCESSING NODE 35102 INSTANCE 
             SH115 D.O.F. 11
  Typically a zero pivot is associated with an overconstraint in the model. 
 However, Abaqus was not able to identify any chains of constraints that might 
 lead to an overconstraint at this node. This suggests that the model might be 
 in fact insufficiently constrained in this particular degree of freedom. 
 Please check the constraints used in this model. 


 ***WARNING: SOLVER PROBLEM.  ZERO PIVOT WHEN PROCESSING NODE 35174 INSTANCE 
             SH115 D.O.F. 11
  Typically a zero pivot is associated with an overconstraint in the model. 
 However, Abaqus was not able to identify any chains of constraints that might 
 lead to an overconstraint at this node. This suggests that the model might be 
 in fact insufficiently constrained in this particular degree of freedom. 
 Please check the constraints used in this model. 


 ***WARNING: SOLVER PROBLEM.  ZERO PIVOT WHEN PROCESSING NODE 35104 INSTANCE 
             SH115 D.O.F. 11
  Typically a zero pivot is associated with an overconstraint in the model. 
 However, Abaqus was not able to identify any chains of constraints that might 
 lead to an overconstraint at this node. This suggests that the model might be 
 in fact insufficiently constrained in this particular degree of freedom. 
 Please check the constraints used in this model. 


 ***WARNING: SOLVER PROBLEM.  ZERO PIVOT WHEN PROCESSING NODE 40749 INSTANCE 
             SH115 D.O.F. 11
  Typically a zero pivot is associated with an overconstraint in the model. 
 However, Abaqus was not able to identify any chains of constraints that might 
 lead to an overconstraint at this node. This suggests that the model might be 
 in fact insufficiently constrained in this particular degree of freedom. 
 Please check the constraints used in this model. 


 ***WARNING: SOLVER PROBLEM.  ZERO PIVOT WHEN PROCESSING NODE 39591 INSTANCE 
             SH115 D.O.F. 11
  Typically a zero pivot is associated with an overconstraint in the model. 
 However, Abaqus was not able to identify any chains of constraints that might 
 lead to an overconstraint at this node. This suggests that the model might be 
 in fact insufficiently constrained in this particular degree of freedom. 
 Please check the constraints used in this model. 


 ***WARNING: SOLVER PROBLEM.  ZERO PIVOT WHEN PROCESSING NODE 39155 INSTANCE 
             SH115 D.O.F. 11
  Typically a zero pivot is associated with an overconstraint in the model. 
 However, Abaqus was not able to identify any chains of constraints that might 
 lead to an overconstraint at this node. This suggests that the model might be 
 in fact insufficiently constrained in this particular degree of freedom. 
 Please check the constraints used in this model. 


 ***WARNING: SOLVER PROBLEM.  ZERO PIVOT WHEN PROCESSING NODE 43140 INSTANCE 
             SH115 D.O.F. 11
  Typically a zero pivot is associated with an overconstraint in the model. 
 However, Abaqus was not able to identify any chains of constraints that might 
 lead to an overconstraint at this node. This suggests that the model might be 
 in fact insufficiently constrained in this particular degree of freedom. 
 Please check the constraints used in this model. 


 ***WARNING: SOLVER PROBLEM.  ZERO PIVOT WHEN PROCESSING NODE 40602 INSTANCE 
             SH115 D.O.F. 11
  Typically a zero pivot is associated with an overconstraint in the model. 
 However, Abaqus was not able to identify any chains of constraints that might 
 lead to an overconstraint at this node. This suggests that the model might be 
 in fact insufficiently constrained in this particular degree of freedom. 
 Please check the constraints used in this model. 


 ***WARNING: SOLVER PROBLEM.  ZERO PIVOT WHEN PROCESSING NODE 40682 INSTANCE 
             SH115 D.O.F. 11
  Typically a zero pivot is associated with an overconstraint in the model. 
 However, Abaqus was not able to identify any chains of constraints that might 
 lead to an overconstraint at this node. This suggests that the model might be 
 in fact insufficiently constrained in this particular degree of freedom. 
 Please check the constraints used in this model. 


 ***WARNING: SOLVER PROBLEM.  ZERO PIVOT WHEN PROCESSING NODE 40762 INSTANCE 
             SH115 D.O.F. 11
  Typically a zero pivot is associated with an overconstraint in the model. 
 However, Abaqus was not able to identify any chains of constraints that might 
 lead to an overconstraint at this node. This suggests that the model might be 
 in fact insufficiently constrained in this particular degree of freedom. 
 Please check the constraints used in this model. 


 ***WARNING: SOLVER PROBLEM.  ZERO PIVOT WHEN PROCESSING NODE 41851 INSTANCE 
             SH115 D.O.F. 11
  Typically a zero pivot is associated with an overconstraint in the model. 
 However, Abaqus was not able to identify any chains of constraints that might 
 lead to an overconstraint at this node. This suggests that the model might be 
 in fact insufficiently constrained in this particular degree of freedom. 
 Please check the constraints used in this model. 


 ***WARNING: SOLVER PROBLEM.  ZERO PIVOT WHEN PROCESSING NODE 41892 INSTANCE 
             SH115 D.O.F. 11
  Typically a zero pivot is associated with an overconstraint in the model. 
 However, Abaqus was not able to identify any chains of constraints that might 
 lead to an overconstraint at this node. This suggests that the model might be 
 in fact insufficiently constrained in this particular degree of freedom. 
 Please check the constraints used in this model. 


 ***WARNING: SOLVER PROBLEM.  ZERO PIVOT WHEN PROCESSING NODE 41893 INSTANCE 
             SH115 D.O.F. 11
  Typically a zero pivot is associated with an overconstraint in the model. 
 However, Abaqus was not able to identify any chains of constraints that might 
 lead to an overconstraint at this node. This suggests that the model might be 
 in fact insufficiently constrained in this particular degree of freedom. 
 Please check the constraints used in this model. 


 ***WARNING: SOLVER PROBLEM.  ZERO PIVOT WHEN PROCESSING NODE 43073 INSTANCE 
             SH115 D.O.F. 11
  Typically a zero pivot is associated with an overconstraint in the model. 
 However, Abaqus was not able to identify any chains of constraints that might 
 lead to an overconstraint at this node. This suggests that the model might be 
 in fact insufficiently constrained in this particular degree of freedom. 
 Please check the constraints used in this model. 


 ***WARNING: SOLVER PROBLEM.  ZERO PIVOT WHEN PROCESSING NODE 43153 INSTANCE 
             SH115 D.O.F. 11
  Typically a zero pivot is associated with an overconstraint in the model. 
 However, Abaqus was not able to identify any chains of constraints that might 
 lead to an overconstraint at this node. This suggests that the model might be 
 in fact insufficiently constrained in this particular degree of freedom. 
 Please check the constraints used in this model. 


 ***WARNING: SOLVER PROBLEM.  ZERO PIVOT WHEN PROCESSING NODE 37061 INSTANCE 
             SH115 D.O.F. 11
  Typically a zero pivot is associated with an overconstraint in the model. 
 However, Abaqus was not able to identify any chains of constraints that might 
 lead to an overconstraint at this node. This suggests that the model might be 
 in fact insufficiently constrained in this particular degree of freedom. 
 Please check the constraints used in this model. 


 ***WARNING: SOLVER PROBLEM.  ZERO PIVOT WHEN PROCESSING NODE 38347 INSTANCE 
             SH115 D.O.F. 11
  Typically a zero pivot is associated with an overconstraint in the model. 
 However, Abaqus was not able to identify any chains of constraints that might 
 lead to an overconstraint at this node. This suggests that the model might be 
 in fact insufficiently constrained in this particular degree of freedom. 
 Please check the constraints used in this model. 


 ***WARNING: SOLVER PROBLEM.  ZERO PIVOT WHEN PROCESSING NODE 38045 INSTANCE 
             SH115 D.O.F. 11
  Typically a zero pivot is associated with an overconstraint in the model. 
 However, Abaqus was not able to identify any chains of constraints that might 
 lead to an overconstraint at this node. This suggests that the model might be 
 in fact insufficiently constrained in this particular degree of freedom. 
 Please check the constraints used in this model. 


 ***WARNING: SOLVER PROBLEM.  ZERO PIVOT WHEN PROCESSING NODE 38402 INSTANCE 
             SH115 D.O.F. 11
  Typically a zero pivot is associated with an overconstraint in the model. 
 However, Abaqus was not able to identify any chains of constraints that might 
 lead to an overconstraint at this node. This suggests that the model might be 
 in fact insufficiently constrained in this particular degree of freedom. 
 Please check the constraints used in this model. 


 ***WARNING: SOLVER PROBLEM.  ZERO PIVOT WHEN PROCESSING NODE 43449 INSTANCE 
             SH115 D.O.F. 11
  Typically a zero pivot is associated with an overconstraint in the model. 
 However, Abaqus was not able to identify any chains of constraints that might 
 lead to an overconstraint at this node. This suggests that the model might be 
 in fact insufficiently constrained in this particular degree of freedom. 
 Please check the constraints used in this model. 


 ***WARNING: SOLVER PROBLEM.  ZERO PIVOT WHEN PROCESSING NODE 43323 INSTANCE 
             SH115 D.O.F. 11
  Typically a zero pivot is associated with an overconstraint in the model. 
 However, Abaqus was not able to identify any chains of constraints that might 
 lead to an overconstraint at this node. This suggests that the model might be 
 in fact insufficiently constrained in this particular degree of freedom. 
 Please check the constraints used in this model. 


 ***WARNING: SOLVER PROBLEM.  ZERO PIVOT WHEN PROCESSING NODE 43520 INSTANCE 
             SH115 D.O.F. 11
  Typically a zero pivot is associated with an overconstraint in the model. 
 However, Abaqus was not able to identify any chains of constraints that might 
 lead to an overconstraint at this node. This suggests that the model might be 
 in fact insufficiently constrained in this particular degree of freedom. 
 Please check the constraints used in this model. 


 ***WARNING: SOLVER PROBLEM.  ZERO PIVOT WHEN PROCESSING NODE 43378 INSTANCE 
             SH115 D.O.F. 11
  Typically a zero pivot is associated with an overconstraint in the model. 
 However, Abaqus was not able to identify any chains of constraints that might 
 lead to an overconstraint at this node. This suggests that the model might be 
 in fact insufficiently constrained in this particular degree of freedom. 
 Please check the constraints used in this model. 


 ***WARNING: SOLVER PROBLEM.  ZERO PIVOT WHEN PROCESSING NODE 41129 INSTANCE 
             SH115 D.O.F. 11
  Typically a zero pivot is associated with an overconstraint in the model. 
 However, Abaqus was not able to identify any chains of constraints that might 
 lead to an overconstraint at this node. This suggests that the model might be 
 in fact insufficiently constrained in this particular degree of freedom. 
 Please check the constraints used in this model. 


 ***WARNING: SOLVER PROBLEM.  ZERO PIVOT WHEN PROCESSING NODE 40932 INSTANCE 
             SH115 D.O.F. 11
  Typically a zero pivot is associated with an overconstraint in the model. 
 However, Abaqus was not able to identify any chains of constraints that might 
 lead to an overconstraint at this node. This suggests that the model might be 
 in fact insufficiently constrained in this particular degree of freedom. 
 Please check the constraints used in this model. 


 ***WARNING: SOLVER PROBLEM.  ZERO PIVOT WHEN PROCESSING NODE 40987 INSTANCE 
             SH115 D.O.F. 11
  Typically a zero pivot is associated with an overconstraint in the model. 
 However, Abaqus was not able to identify any chains of constraints that might 
 lead to an overconstraint at this node. This suggests that the model might be 
 in fact insufficiently constrained in this particular degree of freedom. 
 Please check the constraints used in this model. 


 ***WARNING: Solver problem. Zero pivot when processing D.O.F. 11 of 49 nodes. 
             The nodes have been identified in node set 
             WarnNodeSolvProbZeroPiv_11_2_1_1_1.

               CONVERGENCE CHECKS FOR EQUILIBRIUM ITERATION     1


 AVERAGE FORCE                      3.098E-02   TIME AVG. FORCE       3.098E-02
 LARGEST RESIDUAL FORCE            -1.778E-02   AT NODE     112280   DOF  3
   INSTANCE: SH115                                                                           
 LARGEST INCREMENT OF DISP.         2.213E-05   AT NODE         66   DOF  2
   INSTANCE: SH115                                                                           
 LARGEST CORRECTION TO DISP.        2.213E-05   AT NODE         66   DOF  2
   INSTANCE: SH115                                                                           
          FORCE     EQUILIBRIUM NOT ACHIEVED WITHIN TOLERANCE.

 AVERAGE HEAT FLUX                  1.742E-14   TIME AVG. HEAT FLUX   1.000E-02
 LARGEST RESIDUAL HEAT FLUX         3.712E-17   AT NODE       7323   DOF 11
   INSTANCE: SH115                                                                           
 LARGEST INCREMENT OF TEMP.         2.142E-02   AT NODE      39553   DOF 11
   INSTANCE: SH115                                                                           
 LARGEST CORRECTION TO TEMP.        2.142E-02   AT NODE      39553   DOF 11
   INSTANCE: SH115                                                                           
          THERE IS ZERO HEAT FLUX EVERYWHERE
 

 ***WARNING: THERE IS ZERO HEAT FLUX EVERYWHERE IN THE MODEL BASED ON THE 
             DEFAULT CRITERION. PLEASE CHECK THE VALUE OF THE AVERAGE HEAT FLUX 
             DURING THE CURRENT ITERATION TO VERIFY THAT THE HEAT FLUX IS SMALL 
             ENOUGH TO BE TREATED AS ZERO. IF NOT, PLEASE USE THE SOLUTION 
             CONTROLS TO RESET THE CRITERION FOR ZERO HEAT FLUX.
 
	UNSYMMETRIC DIRECT SPARSE SOLVER RUNNING ON
 	1 HOST:        1 MPI RANK  x 8 THREADS
 	NUMBER OF EQUATIONS:     550572
 	NUMBER OF RHS:           1
 	NUMBER OF FLOPS:         3.723e+12

     CHECK POINT  START OF SOLVER     

     CHECK POINT  END OF SOLVER       

       ELAPSED USER TIME (SEC)      =   123.12    
       ELAPSED SYSTEM TIME (SEC)    =  0.48000    
       ELAPSED TOTAL CPU TIME (SEC) =   123.60    
       ELAPSED WALLCLOCK TIME (SEC) =           16

               CONVERGENCE CHECKS FOR EQUILIBRIUM ITERATION     2


 AVERAGE FORCE                      3.094E-02   TIME AVG. FORCE       3.094E-02
 LARGEST RESIDUAL FORCE            -1.304E-06   AT NODE      65485   DOF  1
   INSTANCE: SH115                                                                           
 LARGEST INCREMENT OF DISP.         2.213E-05   AT NODE         66   DOF  2
   INSTANCE: SH115                                                                           
 LARGEST CORRECTION TO DISP.       -9.290E-09   AT NODE     124222   DOF  1
   INSTANCE: SH115                                                                           
          THE FORCE     EQUILIBRIUM EQUATIONS HAVE CONVERGED

 AVERAGE HEAT FLUX                  1.742E-14   TIME AVG. HEAT FLUX   1.000E-02
 LARGEST RESIDUAL HEAT FLUX         5.079E-20   AT NODE       9118   DOF 11
   INSTANCE: SH115                                                                           
 LARGEST INCREMENT OF TEMP.         2.142E-02   AT NODE      39553   DOF 11
   INSTANCE: SH115                                                                           
 LARGEST CORRECTION TO TEMP.        2.149E-05   AT NODE      12277   DOF 11
   INSTANCE: SH115                                                                           
          THERE IS ZERO HEAT FLUX EVERYWHERE
 

 ***WARNING: THERE IS ZERO HEAT FLUX EVERYWHERE IN THE MODEL BASED ON THE 
             DEFAULT CRITERION. PLEASE CHECK THE VALUE OF THE AVERAGE HEAT FLUX 
             DURING THE CURRENT ITERATION TO VERIFY THAT THE HEAT FLUX IS SMALL 
             ENOUGH TO BE TREATED AS ZERO. IF NOT, PLEASE USE THE SOLUTION 
             CONTROLS TO RESET THE CRITERION FOR ZERO HEAT FLUX.

 MAXIMUM NON-PRESCRIBED INCREMENT IN TEMPERATURE IS   2.142E-02

 ITERATION SUMMARY FOR THE INCREMENT:   2 TOTAL ITERATIONS, OF WHICH
   0 ARE SEVERE DISCONTINUITY ITERATIONS AND  2 ARE EQUILIBRIUM ITERATIONS.

 TIME INCREMENT COMPLETED   8.85    ,  FRACTION OF STEP COMPLETED  1.000E-02
 STEP TIME COMPLETED        8.85    ,  TOTAL TIME COMPLETED        1.809E+03


  INCREMENT     2 STARTS. ATTEMPT NUMBER  1, TIME INCREMENT   8.85    
 
	UNSYMMETRIC DIRECT SPARSE SOLVER RUNNING ON
 	1 HOST:        1 MPI RANK  x 8 THREADS
 	NUMBER OF EQUATIONS:     550572
 	NUMBER OF RHS:           1
 	NUMBER OF FLOPS:         3.723e+12

     CHECK POINT  START OF SOLVER     

     CHECK POINT  END OF SOLVER       

       ELAPSED USER TIME (SEC)      =   133.42    
       ELAPSED SYSTEM TIME (SEC)    =  0.47000    
       ELAPSED TOTAL CPU TIME (SEC) =   133.89    
       ELAPSED WALLCLOCK TIME (SEC) =           17

               CONVERGENCE CHECKS FOR EQUILIBRIUM ITERATION     1


 AVERAGE FORCE                      6.419E-02   TIME AVG. FORCE       4.757E-02
 LARGEST RESIDUAL FORCE            -1.913E-06   AT NODE      65008   DOF  2
   INSTANCE: SH115                                                                           
 LARGEST INCREMENT OF DISP.         2.213E-05   AT NODE         66   DOF  2
   INSTANCE: SH115                                                                           
 LARGEST CORRECTION TO DISP.       -1.964E-08   AT NODE     124222   DOF  1
   INSTANCE: SH115                                                                           
          THE FORCE     EQUILIBRIUM EQUATIONS HAVE CONVERGED

 AVERAGE HEAT FLUX                  1.728E-14   TIME AVG. HEAT FLUX   1.000E-02
 LARGEST RESIDUAL HEAT FLUX         9.638E-20   AT NODE       9118   DOF 11
   INSTANCE: SH115                                                                           
 LARGEST INCREMENT OF TEMP.         2.538E-02   AT NODE      64309   DOF 11
   INSTANCE: SH115                                                                           
 LARGEST CORRECTION TO TEMP.        2.184E-02   AT NODE      64309   DOF 11
   INSTANCE: SH115                                                                           
          THERE IS ZERO HEAT FLUX EVERYWHERE
 

 ***WARNING: THERE IS ZERO HEAT FLUX EVERYWHERE IN THE MODEL BASED ON THE 
             DEFAULT CRITERION. PLEASE CHECK THE VALUE OF THE AVERAGE HEAT FLUX 
             DURING THE CURRENT ITERATION TO VERIFY THAT THE HEAT FLUX IS SMALL 
             ENOUGH TO BE TREATED AS ZERO. IF NOT, PLEASE USE THE SOLUTION 
             CONTROLS TO RESET THE CRITERION FOR ZERO HEAT FLUX.

 MAXIMUM NON-PRESCRIBED INCREMENT IN TEMPERATURE IS   2.538E-02

 ITERATION SUMMARY FOR THE INCREMENT:   1 TOTAL ITERATIONS, OF WHICH
   0 ARE SEVERE DISCONTINUITY ITERATIONS AND  1 ARE EQUILIBRIUM ITERATIONS.

 TIME INCREMENT COMPLETED   8.85    ,  FRACTION OF STEP COMPLETED  2.000E-02
 STEP TIME COMPLETED        17.7    ,  TOTAL TIME COMPLETED        1.818E+03


  INCREMENT     3 STARTS. ATTEMPT NUMBER  1, TIME INCREMENT   8.85    
 
	UNSYMMETRIC DIRECT SPARSE SOLVER RUNNING ON
 	1 HOST:        1 MPI RANK  x 8 THREADS
 	NUMBER OF EQUATIONS:     550572
 	NUMBER OF RHS:           1
 	NUMBER OF FLOPS:         3.723e+12

     CHECK POINT  START OF SOLVER     

     CHECK POINT  END OF SOLVER       

       ELAPSED USER TIME (SEC)      =   133.83    
       ELAPSED SYSTEM TIME (SEC)    =  0.47000    
       ELAPSED TOTAL CPU TIME (SEC) =   134.30    
       ELAPSED WALLCLOCK TIME (SEC) =           17

               CONVERGENCE CHECKS FOR EQUILIBRIUM ITERATION     1


 AVERAGE FORCE                      9.628E-02   TIME AVG. FORCE       6.381E-02
 LARGEST RESIDUAL FORCE            -2.003E-06   AT NODE      65008   DOF  2
   INSTANCE: SH115                                                                           
 LARGEST INCREMENT OF DISP.         2.213E-05   AT NODE         66   DOF  2
   INSTANCE: SH115                                                                           
 LARGEST CORRECTION TO DISP.       -1.941E-08   AT NODE     124222   DOF  1
   INSTANCE: SH115                                                                           
          THE FORCE     EQUILIBRIUM EQUATIONS HAVE CONVERGED

 AVERAGE HEAT FLUX                  1.714E-14   TIME AVG. HEAT FLUX   1.000E-02
 LARGEST RESIDUAL HEAT FLUX         9.558E-20   AT NODE       4096   DOF 11
   INSTANCE: SH115                                                                           
 LARGEST INCREMENT OF TEMP.         3.461E-02   AT NODE      64309   DOF 11
   INSTANCE: SH115                                                                           
 LARGEST CORRECTION TO TEMP.        9.221E-03   AT NODE      64309   DOF 11
   INSTANCE: SH115                                                                           
          THERE IS ZERO HEAT FLUX EVERYWHERE
 

 ***WARNING: THERE IS ZERO HEAT FLUX EVERYWHERE IN THE MODEL BASED ON THE 
             DEFAULT CRITERION. PLEASE CHECK THE VALUE OF THE AVERAGE HEAT FLUX 
             DURING THE CURRENT ITERATION TO VERIFY THAT THE HEAT FLUX IS SMALL 
             ENOUGH TO BE TREATED AS ZERO. IF NOT, PLEASE USE THE SOLUTION 
             CONTROLS TO RESET THE CRITERION FOR ZERO HEAT FLUX.

 MAXIMUM NON-PRESCRIBED INCREMENT IN TEMPERATURE IS   3.461E-02

 ITERATION SUMMARY FOR THE INCREMENT:   1 TOTAL ITERATIONS, OF WHICH
   0 ARE SEVERE DISCONTINUITY ITERATIONS AND  1 ARE EQUILIBRIUM ITERATIONS.

 TIME INCREMENT COMPLETED   8.85    ,  FRACTION OF STEP COMPLETED  3.000E-02
 STEP TIME COMPLETED        26.5    ,  TOTAL TIME COMPLETED        1.827E+03


  INCREMENT     4 STARTS. ATTEMPT NUMBER  1, TIME INCREMENT   8.85    
 
	UNSYMMETRIC DIRECT SPARSE SOLVER RUNNING ON
 	1 HOST:        1 MPI RANK  x 8 THREADS
 	NUMBER OF EQUATIONS:     550572
 	NUMBER OF RHS:           1
 	NUMBER OF FLOPS:         3.723e+12

     CHECK POINT  START OF SOLVER     

     CHECK POINT  END OF SOLVER       

       ELAPSED USER TIME (SEC)      =   133.65    
       ELAPSED SYSTEM TIME (SEC)    =  0.48000    
       ELAPSED TOTAL CPU TIME (SEC) =   134.13    
       ELAPSED WALLCLOCK TIME (SEC) =           17

               CONVERGENCE CHECKS FOR EQUILIBRIUM ITERATION     1


 AVERAGE FORCE                      0.128       TIME AVG. FORCE       7.993E-02
 LARGEST RESIDUAL FORCE             2.586E-02   AT NODE      32978   DOF  2
   INSTANCE: SH115                                                                           
 LARGEST INCREMENT OF DISP.         2.213E-05   AT NODE         66   DOF  2
   INSTANCE: SH115                                                                           
 LARGEST CORRECTION TO DISP.        7.784E-08   AT NODE      10424   DOF  2
   INSTANCE: SH115                                                                           
          FORCE     EQUILIBRIUM NOT ACHIEVED WITHIN TOLERANCE.

 AVERAGE HEAT FLUX                  1.700E-14   TIME AVG. HEAT FLUX   1.000E-02
 LARGEST RESIDUAL HEAT FLUX        -2.074E-17   AT NODE      25949   DOF 11
   INSTANCE: SH115                                                                           
 LARGEST INCREMENT OF TEMP.         3.770E-02   AT NODE      64309   DOF 11
   INSTANCE: SH115                                                                           
 LARGEST CORRECTION TO TEMP.       -3.543E-03   AT NODE      10283   DOF 11
   INSTANCE: SH115                                                                           
          THERE IS ZERO HEAT FLUX EVERYWHERE
 

 ***WARNING: THERE IS ZERO HEAT FLUX EVERYWHERE IN THE MODEL BASED ON THE 
             DEFAULT CRITERION. PLEASE CHECK THE VALUE OF THE AVERAGE HEAT FLUX 
             DURING THE CURRENT ITERATION TO VERIFY THAT THE HEAT FLUX IS SMALL 
             ENOUGH TO BE TREATED AS ZERO. IF NOT, PLEASE USE THE SOLUTION 
             CONTROLS TO RESET THE CRITERION FOR ZERO HEAT FLUX.
 
	UNSYMMETRIC DIRECT SPARSE SOLVER RUNNING ON
 	1 HOST:        1 MPI RANK  x 8 THREADS
 	NUMBER OF EQUATIONS:     550572
 	NUMBER OF RHS:           1
 	NUMBER OF FLOPS:         3.723e+12

     CHECK POINT  START OF SOLVER     

     CHECK POINT  END OF SOLVER       

       ELAPSED USER TIME (SEC)      =   133.56    
       ELAPSED SYSTEM TIME (SEC)    =  0.39000    
       ELAPSED TOTAL CPU TIME (SEC) =   133.95    
       ELAPSED WALLCLOCK TIME (SEC) =           17

               CONVERGENCE CHECKS FOR EQUILIBRIUM ITERATION     2


 AVERAGE FORCE                      0.128       TIME AVG. FORCE       7.993E-02
 LARGEST RESIDUAL FORCE            -2.434E-03   AT NODE      29177   DOF  2
   INSTANCE: SH115                                                                           
 LARGEST INCREMENT OF DISP.         2.213E-05   AT NODE         66   DOF  2
   INSTANCE: SH115                                                                           
 LARGEST CORRECTION TO DISP.        4.558E-09   AT NODE      12362   DOF  2
   INSTANCE: SH115                                                                           
          FORCE     EQUILIBRIUM NOT ACHIEVED WITHIN TOLERANCE.

 AVERAGE HEAT FLUX                  1.700E-14   TIME AVG. HEAT FLUX   1.000E-02
 LARGEST RESIDUAL HEAT FLUX        -2.464E-18   AT NODE      22125   DOF 11
   INSTANCE: SH115                                                                           
 LARGEST INCREMENT OF TEMP.         3.742E-02   AT NODE      64309   DOF 11
   INSTANCE: SH115                                                                           
 LARGEST CORRECTION TO TEMP.       -6.144E-04   AT NODE      20114   DOF 11
   INSTANCE: SH115                                                                           
          THERE IS ZERO HEAT FLUX EVERYWHERE
 

 ***WARNING: THERE IS ZERO HEAT FLUX EVERYWHERE IN THE MODEL BASED ON THE 
             DEFAULT CRITERION. PLEASE CHECK THE VALUE OF THE AVERAGE HEAT FLUX 
             DURING THE CURRENT ITERATION TO VERIFY THAT THE HEAT FLUX IS SMALL 
             ENOUGH TO BE TREATED AS ZERO. IF NOT, PLEASE USE THE SOLUTION 
             CONTROLS TO RESET THE CRITERION FOR ZERO HEAT FLUX.
 
	UNSYMMETRIC DIRECT SPARSE SOLVER RUNNING ON
 	1 HOST:        1 MPI RANK  x 8 THREADS
 	NUMBER OF EQUATIONS:     550572
 	NUMBER OF RHS:           1
 	NUMBER OF FLOPS:         3.723e+12

     CHECK POINT  START OF SOLVER     

     CHECK POINT  END OF SOLVER       

       ELAPSED USER TIME (SEC)      =   131.96    
       ELAPSED SYSTEM TIME (SEC)    =  0.45000    
       ELAPSED TOTAL CPU TIME (SEC) =   132.41    
       ELAPSED WALLCLOCK TIME (SEC) =           17

               CONVERGENCE CHECKS FOR EQUILIBRIUM ITERATION     3


 AVERAGE FORCE                      0.128       TIME AVG. FORCE       7.993E-02
 LARGEST RESIDUAL FORCE            -3.762E-06   AT NODE      29177   DOF  1
   INSTANCE: SH115                                                                           
 LARGEST INCREMENT OF DISP.         2.213E-05   AT NODE         66   DOF  2
   INSTANCE: SH115                                                                           
 LARGEST CORRECTION TO DISP.       -2.400E-10   AT NODE      29177   DOF  2
   INSTANCE: SH115                                                                           
          THE FORCE     EQUILIBRIUM EQUATIONS HAVE CONVERGED

 AVERAGE HEAT FLUX                  1.700E-14   TIME AVG. HEAT FLUX   1.000E-02
 LARGEST RESIDUAL HEAT FLUX        -1.598E-19   AT NODE      25949   DOF 11
   INSTANCE: SH115                                                                           
 LARGEST INCREMENT OF TEMP.         3.742E-02   AT NODE      64309   DOF 11
   INSTANCE: SH115                                                                           
 LARGEST CORRECTION TO TEMP.       -6.381E-05   AT NODE      24037   DOF 11
   INSTANCE: SH115                                                                           
          THERE IS ZERO HEAT FLUX EVERYWHERE
 

 ***WARNING: THERE IS ZERO HEAT FLUX EVERYWHERE IN THE MODEL BASED ON THE 
             DEFAULT CRITERION. PLEASE CHECK THE VALUE OF THE AVERAGE HEAT FLUX 
             DURING THE CURRENT ITERATION TO VERIFY THAT THE HEAT FLUX IS SMALL 
             ENOUGH TO BE TREATED AS ZERO. IF NOT, PLEASE USE THE SOLUTION 
             CONTROLS TO RESET THE CRITERION FOR ZERO HEAT FLUX.

 MAXIMUM NON-PRESCRIBED INCREMENT IN TEMPERATURE IS   3.742E-02

 ITERATION SUMMARY FOR THE INCREMENT:   3 TOTAL ITERATIONS, OF WHICH
   0 ARE SEVERE DISCONTINUITY ITERATIONS AND  3 ARE EQUILIBRIUM ITERATIONS.

 TIME INCREMENT COMPLETED   8.85    ,  FRACTION OF STEP COMPLETED  4.000E-02
 STEP TIME COMPLETED        35.4    ,  TOTAL TIME COMPLETED        1.835E+03


  INCREMENT     5 STARTS. ATTEMPT NUMBER  1, TIME INCREMENT   8.85    
 
	UNSYMMETRIC DIRECT SPARSE SOLVER RUNNING ON
 	1 HOST:        1 MPI RANK  x 8 THREADS
 	NUMBER OF EQUATIONS:     550572
 	NUMBER OF RHS:           1
 	NUMBER OF FLOPS:         3.723e+12

     CHECK POINT  START OF SOLVER     

     CHECK POINT  END OF SOLVER       

       ELAPSED USER TIME (SEC)      =   129.40    
       ELAPSED SYSTEM TIME (SEC)    =  0.40000    
       ELAPSED TOTAL CPU TIME (SEC) =   129.80    
       ELAPSED WALLCLOCK TIME (SEC) =           16

               CONVERGENCE CHECKS FOR EQUILIBRIUM ITERATION     1


 AVERAGE FORCE                      0.160       TIME AVG. FORCE       9.591E-02
 LARGEST RESIDUAL FORCE             8.429E-02   AT NODE      10282   DOF  2
   INSTANCE: SH115                                                                           
 LARGEST INCREMENT OF DISP.         2.213E-05   AT NODE         66   DOF  2
   INSTANCE: SH115                                                                           
 LARGEST CORRECTION TO DISP.        2.976E-07   AT NODE     111610   DOF  2
   INSTANCE: SH115                                                                           
          FORCE     EQUILIBRIUM NOT ACHIEVED WITHIN TOLERANCE.

 AVERAGE HEAT FLUX                  1.686E-14   TIME AVG. HEAT FLUX   1.000E-02
 LARGEST RESIDUAL HEAT FLUX        -1.393E-16   AT NODE      10283   DOF 11
   INSTANCE: SH115                                                                           
 LARGEST INCREMENT OF TEMP.         4.116E-02   AT NODE      64315   DOF 11
   INSTANCE: SH115                                                                           
 LARGEST CORRECTION TO TEMP.        2.999E-02   AT NODE      67755   DOF 11
   INSTANCE: SH115                                                                           
          THERE IS ZERO HEAT FLUX EVERYWHERE
 

 ***WARNING: THERE IS ZERO HEAT FLUX EVERYWHERE IN THE MODEL BASED ON THE 
             DEFAULT CRITERION. PLEASE CHECK THE VALUE OF THE AVERAGE HEAT FLUX 
             DURING THE CURRENT ITERATION TO VERIFY THAT THE HEAT FLUX IS SMALL 
             ENOUGH TO BE TREATED AS ZERO. IF NOT, PLEASE USE THE SOLUTION 
             CONTROLS TO RESET THE CRITERION FOR ZERO HEAT FLUX.
 
	UNSYMMETRIC DIRECT SPARSE SOLVER RUNNING ON
 	1 HOST:        1 MPI RANK  x 8 THREADS
 	NUMBER OF EQUATIONS:     550572
 	NUMBER OF RHS:           1
 	NUMBER OF FLOPS:         3.723e+12

     CHECK POINT  START OF SOLVER     

     CHECK POINT  END OF SOLVER       

       ELAPSED USER TIME (SEC)      =   130.67    
       ELAPSED SYSTEM TIME (SEC)    =  0.45000    
       ELAPSED TOTAL CPU TIME (SEC) =   131.12    
       ELAPSED WALLCLOCK TIME (SEC) =           17

               CONVERGENCE CHECKS FOR EQUILIBRIUM ITERATION     2


 AVERAGE FORCE                      0.160       TIME AVG. FORCE       9.590E-02
 LARGEST RESIDUAL FORCE            -3.486E-03   AT NODE     122394   DOF  3
   INSTANCE: SH115                                                                           
 LARGEST INCREMENT OF DISP.         2.213E-05   AT NODE         66   DOF  2
   INSTANCE: SH115                                                                           
 LARGEST CORRECTION TO DISP.       -1.854E-08   AT NODE     125872   DOF  2
   INSTANCE: SH115                                                                           
          FORCE     EQUILIBRIUM NOT ACHIEVED WITHIN TOLERANCE.

 AVERAGE HEAT FLUX                  1.686E-14   TIME AVG. HEAT FLUX   1.000E-02
 LARGEST RESIDUAL HEAT FLUX        -1.487E-17   AT NODE      81692   DOF 11
   INSTANCE: SH115                                                                           
 LARGEST INCREMENT OF TEMP.         3.907E-02   AT NODE      64315   DOF 11
   INSTANCE: SH115                                                                           
 LARGEST CORRECTION TO TEMP.       -2.183E-03   AT NODE      25330   DOF 11
   INSTANCE: SH115                                                                           
          THERE IS ZERO HEAT FLUX EVERYWHERE
 

 ***WARNING: THERE IS ZERO HEAT FLUX EVERYWHERE IN THE MODEL BASED ON THE 
             DEFAULT CRITERION. PLEASE CHECK THE VALUE OF THE AVERAGE HEAT FLUX 
             DURING THE CURRENT ITERATION TO VERIFY THAT THE HEAT FLUX IS SMALL 
             ENOUGH TO BE TREATED AS ZERO. IF NOT, PLEASE USE THE SOLUTION 
             CONTROLS TO RESET THE CRITERION FOR ZERO HEAT FLUX.
 
	UNSYMMETRIC DIRECT SPARSE SOLVER RUNNING ON
 	1 HOST:        1 MPI RANK  x 8 THREADS
 	NUMBER OF EQUATIONS:     550572
 	NUMBER OF RHS:           1
 	NUMBER OF FLOPS:         3.723e+12

     CHECK POINT  START OF SOLVER     

     CHECK POINT  END OF SOLVER       

       ELAPSED USER TIME (SEC)      =   129.00    
       ELAPSED SYSTEM TIME (SEC)    =  0.39000    
       ELAPSED TOTAL CPU TIME (SEC) =   129.39    
       ELAPSED WALLCLOCK TIME (SEC) =           17

               CONVERGENCE CHECKS FOR EQUILIBRIUM ITERATION     3


 AVERAGE FORCE                      0.160       TIME AVG. FORCE       9.590E-02
 LARGEST RESIDUAL FORCE            -2.536E-05   AT NODE     111726   DOF  3
   INSTANCE: SH115                                                                           
 LARGEST INCREMENT OF DISP.         2.213E-05   AT NODE         66   DOF  2
   INSTANCE: SH115                                                                           
 LARGEST CORRECTION TO DISP.       -2.625E-10   AT NODE      64971   DOF  2
   INSTANCE: SH115                                                                           
          THE FORCE     EQUILIBRIUM EQUATIONS HAVE CONVERGED

 AVERAGE HEAT FLUX                  1.686E-14   TIME AVG. HEAT FLUX   1.000E-02
 LARGEST RESIDUAL HEAT FLUX        -2.452E-19   AT NODE      81692   DOF 11
   INSTANCE: SH115                                                                           
 LARGEST INCREMENT OF TEMP.         3.888E-02   AT NODE      64315   DOF 11
   INSTANCE: SH115                                                                           
 LARGEST CORRECTION TO TEMP.       -2.451E-04   AT NODE      63316   DOF 11
   INSTANCE: SH115                                                                           
          THERE IS ZERO HEAT FLUX EVERYWHERE
 

 ***WARNING: THERE IS ZERO HEAT FLUX EVERYWHERE IN THE MODEL BASED ON THE 
             DEFAULT CRITERION. PLEASE CHECK THE VALUE OF THE AVERAGE HEAT FLUX 
             DURING THE CURRENT ITERATION TO VERIFY THAT THE HEAT FLUX IS SMALL 
             ENOUGH TO BE TREATED AS ZERO. IF NOT, PLEASE USE THE SOLUTION 
             CONTROLS TO RESET THE CRITERION FOR ZERO HEAT FLUX.

 MAXIMUM NON-PRESCRIBED INCREMENT IN TEMPERATURE IS   3.888E-02

 ITERATION SUMMARY FOR THE INCREMENT:   3 TOTAL ITERATIONS, OF WHICH
   0 ARE SEVERE DISCONTINUITY ITERATIONS AND  3 ARE EQUILIBRIUM ITERATIONS.

 TIME INCREMENT COMPLETED   8.85    ,  FRACTION OF STEP COMPLETED  5.000E-02
 STEP TIME COMPLETED        44.2    ,  TOTAL TIME COMPLETED        1.844E+03


  INCREMENT     6 STARTS. ATTEMPT NUMBER  1, TIME INCREMENT   8.85    
 
	UNSYMMETRIC DIRECT SPARSE SOLVER RUNNING ON
 	1 HOST:        1 MPI RANK  x 8 THREADS
 	NUMBER OF EQUATIONS:     550572
 	NUMBER OF RHS:           1
 	NUMBER OF FLOPS:         3.723e+12

     CHECK POINT  START OF SOLVER     

     CHECK POINT  END OF SOLVER       

       ELAPSED USER TIME (SEC)      =   129.01    
       ELAPSED SYSTEM TIME (SEC)    =  0.41000    
       ELAPSED TOTAL CPU TIME (SEC) =   129.42    
       ELAPSED WALLCLOCK TIME (SEC) =           17

               CONVERGENCE CHECKS FOR EQUILIBRIUM ITERATION     1


 AVERAGE FORCE                      0.190       TIME AVG. FORCE       0.112    
 LARGEST RESIDUAL FORCE             0.168       AT NODE     117617   DOF  3
   INSTANCE: SH115                                                                           
 LARGEST INCREMENT OF DISP.         2.213E-05   AT NODE         66   DOF  2
   INSTANCE: SH115                                                                           
 LARGEST CORRECTION TO DISP.        4.187E-07   AT NODE     109915   DOF  2
   INSTANCE: SH115                                                                           
          FORCE     EQUILIBRIUM NOT ACHIEVED WITHIN TOLERANCE.

 AVERAGE HEAT FLUX                  1.673E-14   TIME AVG. HEAT FLUX   1.000E-02
 LARGEST RESIDUAL HEAT FLUX        -2.348E-16   AT NODE     136620   DOF 11
   INSTANCE: SH115                                                                           
 LARGEST INCREMENT OF TEMP.        -7.032E-02   AT NODE      67749   DOF 11
   INSTANCE: SH115                                                                           
 LARGEST CORRECTION TO TEMP.       -8.891E-02   AT NODE      67749   DOF 11
   INSTANCE: SH115                                                                           
          THERE IS ZERO HEAT FLUX EVERYWHERE
 

 ***WARNING: THERE IS ZERO HEAT FLUX EVERYWHERE IN THE MODEL BASED ON THE 
             DEFAULT CRITERION. PLEASE CHECK THE VALUE OF THE AVERAGE HEAT FLUX 
             DURING THE CURRENT ITERATION TO VERIFY THAT THE HEAT FLUX IS SMALL 
             ENOUGH TO BE TREATED AS ZERO. IF NOT, PLEASE USE THE SOLUTION 
             CONTROLS TO RESET THE CRITERION FOR ZERO HEAT FLUX.
 
	UNSYMMETRIC DIRECT SPARSE SOLVER RUNNING ON
 	1 HOST:        1 MPI RANK  x 8 THREADS
 	NUMBER OF EQUATIONS:     550572
 	NUMBER OF RHS:           1
 	NUMBER OF FLOPS:         3.723e+12

     CHECK POINT  START OF SOLVER     

     CHECK POINT  END OF SOLVER       

       ELAPSED USER TIME (SEC)      =   132.01    
       ELAPSED SYSTEM TIME (SEC)    =  0.43000    
       ELAPSED TOTAL CPU TIME (SEC) =   132.44    
       ELAPSED WALLCLOCK TIME (SEC) =           17

               CONVERGENCE CHECKS FOR EQUILIBRIUM ITERATION     2


 AVERAGE FORCE                      0.190       TIME AVG. FORCE       0.112    
 LARGEST RESIDUAL FORCE             5.831E-03   AT NODE     122583   DOF  2
   INSTANCE: SH115                                                                           
 LARGEST INCREMENT OF DISP.         2.213E-05   AT NODE         66   DOF  2
   INSTANCE: SH115                                                                           
 LARGEST CORRECTION TO DISP.        2.132E-08   AT NODE     119010   DOF  2
   INSTANCE: SH115                                                                           
          FORCE     EQUILIBRIUM NOT ACHIEVED WITHIN TOLERANCE.

 AVERAGE HEAT FLUX                  1.673E-14   TIME AVG. HEAT FLUX   1.000E-02
 LARGEST RESIDUAL HEAT FLUX        -2.755E-17   AT NODE     118702   DOF 11
   INSTANCE: SH115                                                                           
 LARGEST INCREMENT OF TEMP.        -7.086E-02   AT NODE      67749   DOF 11
   INSTANCE: SH115                                                                           
 LARGEST CORRECTION TO TEMP.       -1.760E-03   AT NODE      65047   DOF 11
   INSTANCE: SH115                                                                           
          THERE IS ZERO HEAT FLUX EVERYWHERE
 

 ***WARNING: THERE IS ZERO HEAT FLUX EVERYWHERE IN THE MODEL BASED ON THE 
             DEFAULT CRITERION. PLEASE CHECK THE VALUE OF THE AVERAGE HEAT FLUX 
             DURING THE CURRENT ITERATION TO VERIFY THAT THE HEAT FLUX IS SMALL 
             ENOUGH TO BE TREATED AS ZERO. IF NOT, PLEASE USE THE SOLUTION 
             CONTROLS TO RESET THE CRITERION FOR ZERO HEAT FLUX.
 
	UNSYMMETRIC DIRECT SPARSE SOLVER RUNNING ON
 	1 HOST:        1 MPI RANK  x 8 THREADS
 	NUMBER OF EQUATIONS:     550572
 	NUMBER OF RHS:           1
 	NUMBER OF FLOPS:         3.723e+12

     CHECK POINT  START OF SOLVER     

     CHECK POINT  END OF SOLVER       

       ELAPSED USER TIME (SEC)      =   135.41    
       ELAPSED SYSTEM TIME (SEC)    =  0.44000    
       ELAPSED TOTAL CPU TIME (SEC) =   135.85    
       ELAPSED WALLCLOCK TIME (SEC) =           17

               CONVERGENCE CHECKS FOR EQUILIBRIUM ITERATION     3


 AVERAGE FORCE                      0.190       TIME AVG. FORCE       0.112    
 LARGEST RESIDUAL FORCE            -4.451E-06   AT NODE     122583   DOF  2
   INSTANCE: SH115                                                                           
 LARGEST INCREMENT OF DISP.         2.213E-05   AT NODE         66   DOF  2
   INSTANCE: SH115                                                                           
 LARGEST CORRECTION TO DISP.        4.606E-10   AT NODE     122583   DOF  2
   INSTANCE: SH115                                                                           
          THE FORCE     EQUILIBRIUM EQUATIONS HAVE CONVERGED

 AVERAGE HEAT FLUX                  1.673E-14   TIME AVG. HEAT FLUX   1.000E-02
 LARGEST RESIDUAL HEAT FLUX        -7.459E-19   AT NODE     122275   DOF 11
   INSTANCE: SH115                                                                           
 LARGEST INCREMENT OF TEMP.        -7.086E-02   AT NODE      67749   DOF 11
   INSTANCE: SH115                                                                           
 LARGEST CORRECTION TO TEMP.       -1.897E-04   AT NODE     118702   DOF 11
   INSTANCE: SH115                                                                           
          THERE IS ZERO HEAT FLUX EVERYWHERE
 

 ***WARNING: THERE IS ZERO HEAT FLUX EVERYWHERE IN THE MODEL BASED ON THE 
             DEFAULT CRITERION. PLEASE CHECK THE VALUE OF THE AVERAGE HEAT FLUX 
             DURING THE CURRENT ITERATION TO VERIFY THAT THE HEAT FLUX IS SMALL 
             ENOUGH TO BE TREATED AS ZERO. IF NOT, PLEASE USE THE SOLUTION 
             CONTROLS TO RESET THE CRITERION FOR ZERO HEAT FLUX.

 MAXIMUM NON-PRESCRIBED INCREMENT IN TEMPERATURE IS  -7.086E-02

 ITERATION SUMMARY FOR THE INCREMENT:   3 TOTAL ITERATIONS, OF WHICH
   0 ARE SEVERE DISCONTINUITY ITERATIONS AND  3 ARE EQUILIBRIUM ITERATIONS.

 TIME INCREMENT COMPLETED   8.85    ,  FRACTION OF STEP COMPLETED  6.000E-02
 STEP TIME COMPLETED        53.1    ,  TOTAL TIME COMPLETED        1.853E+03


  INCREMENT     7 STARTS. ATTEMPT NUMBER  1, TIME INCREMENT   8.85    
 
	UNSYMMETRIC DIRECT SPARSE SOLVER RUNNING ON
 	1 HOST:        1 MPI RANK  x 8 THREADS
 	NUMBER OF EQUATIONS:     550572
 	NUMBER OF RHS:           1
 	NUMBER OF FLOPS:         3.723e+12

     CHECK POINT  START OF SOLVER     

     CHECK POINT  END OF SOLVER       

       ELAPSED USER TIME (SEC)      =   134.80    
       ELAPSED SYSTEM TIME (SEC)    =  0.44000    
       ELAPSED TOTAL CPU TIME (SEC) =   135.24    
       ELAPSED WALLCLOCK TIME (SEC) =           18

               CONVERGENCE CHECKS FOR EQUILIBRIUM ITERATION     1


 AVERAGE FORCE                      0.220       TIME AVG. FORCE       0.127    
 LARGEST RESIDUAL FORCE            -0.141       AT NODE     126504   DOF  3
   INSTANCE: SH115                                                                           
 LARGEST INCREMENT OF DISP.         2.213E-05   AT NODE         66   DOF  2
   INSTANCE: SH115                                                                           
 LARGEST CORRECTION TO DISP.        4.494E-07   AT NODE     110209   DOF  2
   INSTANCE: SH115                                                                           
          FORCE     EQUILIBRIUM NOT ACHIEVED WITHIN TOLERANCE.

 AVERAGE HEAT FLUX                  1.659E-14   TIME AVG. HEAT FLUX   1.000E-02
 LARGEST RESIDUAL HEAT FLUX        -3.185E-16   AT NODE     136845   DOF 11
   INSTANCE: SH115                                                                           
 LARGEST INCREMENT OF TEMP.        -4.520E-02   AT NODE      67749   DOF 11
   INSTANCE: SH115                                                                           
[...]
             DURING THE CURRENT ITERATION TO VERIFY THAT THE HEAT FLUX IS SMALL 
             ENOUGH TO BE TREATED AS ZERO. IF NOT, PLEASE USE THE SOLUTION 
             CONTROLS TO RESET THE CRITERION FOR ZERO HEAT FLUX.
 
	UNSYMMETRIC DIRECT SPARSE SOLVER RUNNING ON
 	1 HOST:        1 MPI RANK  x 8 THREADS
 	NUMBER OF EQUATIONS:     550572
 	NUMBER OF RHS:           1
 	NUMBER OF FLOPS:         3.723e+12

     CHECK POINT  START OF SOLVER     

     CHECK POINT  END OF SOLVER       

       ELAPSED USER TIME (SEC)      =   114.28    
       ELAPSED SYSTEM TIME (SEC)    =  0.40000    
       ELAPSED TOTAL CPU TIME (SEC) =   114.68    
       ELAPSED WALLCLOCK TIME (SEC) =           15

               CONVERGENCE CHECKS FOR EQUILIBRIUM ITERATION     4


 AVERAGE FORCE                      0.514       TIME AVG. FORCE       0.462    
 LARGEST RESIDUAL FORCE             4.149E-02   AT NODE     111897   DOF  3
   INSTANCE: SH115                                                                           
 LARGEST INCREMENT OF DISP.         2.241E-05   AT NODE     111657   DOF  2
   INSTANCE: SH115                                                                           
 LARGEST CORRECTION TO DISP.       -2.706E-07   AT NODE      36089   DOF  2
   INSTANCE: SH115                                                                           
          FORCE     EQUILIBRIUM NOT ACHIEVED WITHIN TOLERANCE.

 AVERAGE HEAT FLUX                  7.798E-15   TIME AVG. HEAT FLUX   1.000E-02
 LARGEST RESIDUAL HEAT FLUX        -1.285E-16   AT NODE     117854   DOF 11
   INSTANCE: SH115                                                                           
 LARGEST INCREMENT OF TEMP.         0.380       AT NODE      54276   DOF 11
   INSTANCE: SH115                                                                           
 LARGEST CORRECTION TO TEMP.       -1.851E-02   AT NODE      47230   DOF 11
   INSTANCE: SH115                                                                           
          THERE IS ZERO HEAT FLUX EVERYWHERE
 

 ***WARNING: THERE IS ZERO HEAT FLUX EVERYWHERE IN THE MODEL BASED ON THE 
             DEFAULT CRITERION. PLEASE CHECK THE VALUE OF THE AVERAGE HEAT FLUX 
             DURING THE CURRENT ITERATION TO VERIFY THAT THE HEAT FLUX IS SMALL 
             ENOUGH TO BE TREATED AS ZERO. IF NOT, PLEASE USE THE SOLUTION 
             CONTROLS TO RESET THE CRITERION FOR ZERO HEAT FLUX.
 
	UNSYMMETRIC DIRECT SPARSE SOLVER RUNNING ON
 	1 HOST:        1 MPI RANK  x 8 THREADS
 	NUMBER OF EQUATIONS:     550572
 	NUMBER OF RHS:           1
 	NUMBER OF FLOPS:         3.723e+12

     CHECK POINT  START OF SOLVER     

     CHECK POINT  END OF SOLVER       

       ELAPSED USER TIME (SEC)      =   114.41    
       ELAPSED SYSTEM TIME (SEC)    =  0.38000    
       ELAPSED TOTAL CPU TIME (SEC) =   114.79    
       ELAPSED WALLCLOCK TIME (SEC) =           14

               CONVERGENCE CHECKS FOR EQUILIBRIUM ITERATION     5


 AVERAGE FORCE                      0.514       TIME AVG. FORCE       0.462    
 LARGEST RESIDUAL FORCE             1.414E-02   AT NODE     112355   DOF  3
   INSTANCE: SH115                                                                           
 LARGEST INCREMENT OF DISP.         2.241E-05   AT NODE     111657   DOF  2
   INSTANCE: SH115                                                                           
 LARGEST CORRECTION TO DISP.       -3.658E-08   AT NODE      36053   DOF  2
   INSTANCE: SH115                                                                           
          FORCE     EQUILIBRIUM NOT ACHIEVED WITHIN TOLERANCE.

 AVERAGE HEAT FLUX                  7.798E-15   TIME AVG. HEAT FLUX   1.000E-02
 LARGEST RESIDUAL HEAT FLUX        -4.566E-17   AT NODE     116424   DOF 11
   INSTANCE: SH115                                                                           
 LARGEST INCREMENT OF TEMP.         0.381       AT NODE      54276   DOF 11
   INSTANCE: SH115                                                                           
 LARGEST CORRECTION TO TEMP.        2.619E-03   AT NODE      37270   DOF 11
   INSTANCE: SH115                                                                           
          THERE IS ZERO HEAT FLUX EVERYWHERE
 

 ***WARNING: THERE IS ZERO HEAT FLUX EVERYWHERE IN THE MODEL BASED ON THE 
             DEFAULT CRITERION. PLEASE CHECK THE VALUE OF THE AVERAGE HEAT FLUX 
             DURING THE CURRENT ITERATION TO VERIFY THAT THE HEAT FLUX IS SMALL 
             ENOUGH TO BE TREATED AS ZERO. IF NOT, PLEASE USE THE SOLUTION 
             CONTROLS TO RESET THE CRITERION FOR ZERO HEAT FLUX.
 
	UNSYMMETRIC DIRECT SPARSE SOLVER RUNNING ON
 	1 HOST:        1 MPI RANK  x 8 THREADS
 	NUMBER OF EQUATIONS:     550572
 	NUMBER OF RHS:           1
 	NUMBER OF FLOPS:         3.723e+12

     CHECK POINT  START OF SOLVER     

     CHECK POINT  END OF SOLVER       

       ELAPSED USER TIME (SEC)      =   114.21    
       ELAPSED SYSTEM TIME (SEC)    =  0.35000    
       ELAPSED TOTAL CPU TIME (SEC) =   114.56    
       ELAPSED WALLCLOCK TIME (SEC) =           15

               CONVERGENCE CHECKS FOR EQUILIBRIUM ITERATION     6


 AVERAGE FORCE                      0.514       TIME AVG. FORCE       0.462    
 LARGEST RESIDUAL FORCE            -1.208E-03   AT NODE      64717   DOF  2
   INSTANCE: SH115                                                                           
 LARGEST INCREMENT OF DISP.         2.241E-05   AT NODE     111657   DOF  2
   INSTANCE: SH115                                                                           
 LARGEST CORRECTION TO DISP.       -5.237E-09   AT NODE      36796   DOF  2
   INSTANCE: SH115                                                                           
          THE FORCE     EQUILIBRIUM EQUATIONS HAVE CONVERGED

 AVERAGE HEAT FLUX                  7.798E-15   TIME AVG. HEAT FLUX   1.000E-02
 LARGEST RESIDUAL HEAT FLUX        -4.633E-16   AT NODE      98209   DOF 11
   INSTANCE: SH115                                                                           
 LARGEST INCREMENT OF TEMP.         0.381       AT NODE      54276   DOF 11
   INSTANCE: SH115                                                                           
 LARGEST CORRECTION TO TEMP.        5.425E-04   AT NODE      49497   DOF 11
   INSTANCE: SH115                                                                           
          THERE IS ZERO HEAT FLUX EVERYWHERE
 

 ***WARNING: THERE IS ZERO HEAT FLUX EVERYWHERE IN THE MODEL BASED ON THE 
             DEFAULT CRITERION. PLEASE CHECK THE VALUE OF THE AVERAGE HEAT FLUX 
             DURING THE CURRENT ITERATION TO VERIFY THAT THE HEAT FLUX IS SMALL 
             ENOUGH TO BE TREATED AS ZERO. IF NOT, PLEASE USE THE SOLUTION 
             CONTROLS TO RESET THE CRITERION FOR ZERO HEAT FLUX.

 MAXIMUM NON-PRESCRIBED INCREMENT IN TEMPERATURE IS   0.381    

 ITERATION SUMMARY FOR THE INCREMENT:   6 TOTAL ITERATIONS, OF WHICH
   0 ARE SEVERE DISCONTINUITY ITERATIONS AND  6 ARE EQUILIBRIUM ITERATIONS.

 TIME INCREMENT COMPLETED   8.85    ,  FRACTION OF STEP COMPLETED  0.990    
 STEP TIME COMPLETED        876.    ,  TOTAL TIME COMPLETED        2.676E+03


  INCREMENT   130 STARTS. ATTEMPT NUMBER  1, TIME INCREMENT   8.85    
 
	UNSYMMETRIC DIRECT SPARSE SOLVER RUNNING ON
 	1 HOST:        1 MPI RANK  x 8 THREADS
 	NUMBER OF EQUATIONS:     550572
 	NUMBER OF RHS:           1
 	NUMBER OF FLOPS:         3.723e+12

     CHECK POINT  START OF SOLVER     

     CHECK POINT  END OF SOLVER       

       ELAPSED USER TIME (SEC)      =   114.20    
       ELAPSED SYSTEM TIME (SEC)    =  0.39000    
       ELAPSED TOTAL CPU TIME (SEC) =   114.59    
       ELAPSED WALLCLOCK TIME (SEC) =           15

               CONVERGENCE CHECKS FOR EQUILIBRIUM ITERATION     1


 AVERAGE FORCE                      0.514       TIME AVG. FORCE       0.462    
 LARGEST RESIDUAL FORCE            -0.308       AT NODE      36054   DOF  2
   INSTANCE: SH115                                                                           
 LARGEST INCREMENT OF DISP.         2.248E-05   AT NODE     111657   DOF  2
   INSTANCE: SH115                                                                           
 LARGEST CORRECTION TO DISP.       -2.371E-06   AT NODE      83208   DOF  2
   INSTANCE: SH115                                                                           
          FORCE     EQUILIBRIUM NOT ACHIEVED WITHIN TOLERANCE.

 AVERAGE HEAT FLUX                  7.736E-15   TIME AVG. HEAT FLUX   1.000E-02
 LARGEST RESIDUAL HEAT FLUX        -1.232E-15   AT NODE      54276   DOF 11
   INSTANCE: SH115                                                                           
 LARGEST INCREMENT OF TEMP.         0.419       AT NODE      36809   DOF 11
   INSTANCE: SH115                                                                           
 LARGEST CORRECTION TO TEMP.        0.129       AT NODE      39931   DOF 11
   INSTANCE: SH115                                                                           
          THERE IS ZERO HEAT FLUX EVERYWHERE
 

 ***WARNING: THERE IS ZERO HEAT FLUX EVERYWHERE IN THE MODEL BASED ON THE 
             DEFAULT CRITERION. PLEASE CHECK THE VALUE OF THE AVERAGE HEAT FLUX 
             DURING THE CURRENT ITERATION TO VERIFY THAT THE HEAT FLUX IS SMALL 
             ENOUGH TO BE TREATED AS ZERO. IF NOT, PLEASE USE THE SOLUTION 
             CONTROLS TO RESET THE CRITERION FOR ZERO HEAT FLUX.
 
	UNSYMMETRIC DIRECT SPARSE SOLVER RUNNING ON
 	1 HOST:        1 MPI RANK  x 8 THREADS
 	NUMBER OF EQUATIONS:     550572
 	NUMBER OF RHS:           1
 	NUMBER OF FLOPS:         3.723e+12

     CHECK POINT  START OF SOLVER     

     CHECK POINT  END OF SOLVER       

       ELAPSED USER TIME (SEC)      =   114.18    
       ELAPSED SYSTEM TIME (SEC)    =  0.36000    
       ELAPSED TOTAL CPU TIME (SEC) =   114.54    
       ELAPSED WALLCLOCK TIME (SEC) =           15

               CONVERGENCE CHECKS FOR EQUILIBRIUM ITERATION     2


 AVERAGE FORCE                      0.515       TIME AVG. FORCE       0.462    
 LARGEST RESIDUAL FORCE             -2.29       AT NODE     126624   DOF  3
   INSTANCE: SH115                                                                           
 LARGEST INCREMENT OF DISP.         2.303E-05   AT NODE      38967   DOF  2
   INSTANCE: SH115                                                                           
 LARGEST CORRECTION TO DISP.        2.895E-06   AT NODE      37263   DOF  2
   INSTANCE: SH115                                                                           
          FORCE     EQUILIBRIUM NOT ACHIEVED WITHIN TOLERANCE.

 AVERAGE HEAT FLUX                  7.736E-15   TIME AVG. HEAT FLUX   1.000E-02
 LARGEST RESIDUAL HEAT FLUX         1.714E-15   AT NODE     100371   DOF 11
   INSTANCE: SH115                                                                           
 LARGEST INCREMENT OF TEMP.         0.397       AT NODE      36809   DOF 11
   INSTANCE: SH115                                                                           
 LARGEST CORRECTION TO TEMP.       -2.773E-02   AT NODE      54276   DOF 11
   INSTANCE: SH115                                                                           
          THERE IS ZERO HEAT FLUX EVERYWHERE
 

 ***WARNING: THERE IS ZERO HEAT FLUX EVERYWHERE IN THE MODEL BASED ON THE 
             DEFAULT CRITERION. PLEASE CHECK THE VALUE OF THE AVERAGE HEAT FLUX 
             DURING THE CURRENT ITERATION TO VERIFY THAT THE HEAT FLUX IS SMALL 
             ENOUGH TO BE TREATED AS ZERO. IF NOT, PLEASE USE THE SOLUTION 
             CONTROLS TO RESET THE CRITERION FOR ZERO HEAT FLUX.
 
	UNSYMMETRIC DIRECT SPARSE SOLVER RUNNING ON
 	1 HOST:        1 MPI RANK  x 8 THREADS
 	NUMBER OF EQUATIONS:     550572
 	NUMBER OF RHS:           1
 	NUMBER OF FLOPS:         3.723e+12

     CHECK POINT  START OF SOLVER     

     CHECK POINT  END OF SOLVER       

       ELAPSED USER TIME (SEC)      =   114.23    
       ELAPSED SYSTEM TIME (SEC)    =  0.39000    
       ELAPSED TOTAL CPU TIME (SEC) =   114.62    
       ELAPSED WALLCLOCK TIME (SEC) =           15

               CONVERGENCE CHECKS FOR EQUILIBRIUM ITERATION     3


 AVERAGE FORCE                      0.514       TIME AVG. FORCE       0.462    
 LARGEST RESIDUAL FORCE             6.356E-02   AT NODE      83067   DOF  2
   INSTANCE: SH115                                                                           
 LARGEST INCREMENT OF DISP.         2.237E-05   AT NODE     111657   DOF  2
   INSTANCE: SH115                                                                           
 LARGEST CORRECTION TO DISP.        1.298E-06   AT NODE      86384   DOF  2
   INSTANCE: SH115                                                                           
          FORCE     EQUILIBRIUM NOT ACHIEVED WITHIN TOLERANCE.

 AVERAGE HEAT FLUX                  7.736E-15   TIME AVG. HEAT FLUX   1.000E-02
 LARGEST RESIDUAL HEAT FLUX        -1.128E-15   AT NODE      36809   DOF 11
   INSTANCE: SH115                                                                           
 LARGEST INCREMENT OF TEMP.         0.461       AT NODE      36809   DOF 11
   INSTANCE: SH115                                                                           
 LARGEST CORRECTION TO TEMP.        6.445E-02   AT NODE      36809   DOF 11
   INSTANCE: SH115                                                                           
          THERE IS ZERO HEAT FLUX EVERYWHERE
 

 ***WARNING: THERE IS ZERO HEAT FLUX EVERYWHERE IN THE MODEL BASED ON THE 
             DEFAULT CRITERION. PLEASE CHECK THE VALUE OF THE AVERAGE HEAT FLUX 
             DURING THE CURRENT ITERATION TO VERIFY THAT THE HEAT FLUX IS SMALL 
             ENOUGH TO BE TREATED AS ZERO. IF NOT, PLEASE USE THE SOLUTION 
             CONTROLS TO RESET THE CRITERION FOR ZERO HEAT FLUX.
 
	UNSYMMETRIC DIRECT SPARSE SOLVER RUNNING ON
 	1 HOST:        1 MPI RANK  x 8 THREADS
 	NUMBER OF EQUATIONS:     550572
 	NUMBER OF RHS:           1
 	NUMBER OF FLOPS:         3.723e+12

     CHECK POINT  START OF SOLVER     

     CHECK POINT  END OF SOLVER       

       ELAPSED USER TIME (SEC)      =   114.08    
       ELAPSED SYSTEM TIME (SEC)    =  0.36000    
       ELAPSED TOTAL CPU TIME (SEC) =   114.44    
       ELAPSED WALLCLOCK TIME (SEC) =           15

               CONVERGENCE CHECKS FOR EQUILIBRIUM ITERATION     4


 AVERAGE FORCE                      0.514       TIME AVG. FORCE       0.462    
 LARGEST RESIDUAL FORCE             3.766E-02   AT NODE     112355   DOF  3
   INSTANCE: SH115                                                                           
 LARGEST INCREMENT OF DISP.         2.241E-05   AT NODE     111657   DOF  2
   INSTANCE: SH115                                                                           
 LARGEST CORRECTION TO DISP.       -5.160E-07   AT NODE      36159   DOF  2
   INSTANCE: SH115                                                                           
          FORCE     EQUILIBRIUM NOT ACHIEVED WITHIN TOLERANCE.

 AVERAGE HEAT FLUX                  7.736E-15   TIME AVG. HEAT FLUX   1.000E-02
 LARGEST RESIDUAL HEAT FLUX        -4.155E-16   AT NODE      49836   DOF 11
   INSTANCE: SH115                                                                           
 LARGEST INCREMENT OF TEMP.         0.401       AT NODE      36809   DOF 11
   INSTANCE: SH115                                                                           
 LARGEST CORRECTION TO TEMP.       -6.020E-02   AT NODE      36809   DOF 11
   INSTANCE: SH115                                                                           
          THERE IS ZERO HEAT FLUX EVERYWHERE
 

 ***WARNING: THERE IS ZERO HEAT FLUX EVERYWHERE IN THE MODEL BASED ON THE 
             DEFAULT CRITERION. PLEASE CHECK THE VALUE OF THE AVERAGE HEAT FLUX 
             DURING THE CURRENT ITERATION TO VERIFY THAT THE HEAT FLUX IS SMALL 
             ENOUGH TO BE TREATED AS ZERO. IF NOT, PLEASE USE THE SOLUTION 
             CONTROLS TO RESET THE CRITERION FOR ZERO HEAT FLUX.
 
	UNSYMMETRIC DIRECT SPARSE SOLVER RUNNING ON
 	1 HOST:        1 MPI RANK  x 8 THREADS
 	NUMBER OF EQUATIONS:     550572
 	NUMBER OF RHS:           1
 	NUMBER OF FLOPS:         3.723e+12

     CHECK POINT  START OF SOLVER     

     CHECK POINT  END OF SOLVER       

       ELAPSED USER TIME (SEC)      =   114.06    
       ELAPSED SYSTEM TIME (SEC)    =  0.38000    
       ELAPSED TOTAL CPU TIME (SEC) =   114.44    
       ELAPSED WALLCLOCK TIME (SEC) =           15

               CONVERGENCE CHECKS FOR EQUILIBRIUM ITERATION     5


 AVERAGE FORCE                      0.514       TIME AVG. FORCE       0.462    
 LARGEST RESIDUAL FORCE            -2.207E-03   AT NODE      65428   DOF  3
   INSTANCE: SH115                                                                           
 LARGEST INCREMENT OF DISP.         2.241E-05   AT NODE     111657   DOF  2
   INSTANCE: SH115                                                                           
 LARGEST CORRECTION TO DISP.        5.462E-08   AT NODE      83068   DOF  2
   INSTANCE: SH115                                                                           
          THE FORCE     EQUILIBRIUM EQUATIONS HAVE CONVERGED

 AVERAGE HEAT FLUX                  7.736E-15   TIME AVG. HEAT FLUX   1.000E-02
 LARGEST RESIDUAL HEAT FLUX         4.550E-17   AT NODE      41062   DOF 11
   INSTANCE: SH115                                                                           
 LARGEST INCREMENT OF TEMP.         0.405       AT NODE      36809   DOF 11
   INSTANCE: SH115                                                                           
 LARGEST CORRECTION TO TEMP.       -1.126E-02   AT NODE      49836   DOF 11
   INSTANCE: SH115                                                                           
          THERE IS ZERO HEAT FLUX EVERYWHERE
 

 ***WARNING: THERE IS ZERO HEAT FLUX EVERYWHERE IN THE MODEL BASED ON THE 
             DEFAULT CRITERION. PLEASE CHECK THE VALUE OF THE AVERAGE HEAT FLUX 
             DURING THE CURRENT ITERATION TO VERIFY THAT THE HEAT FLUX IS SMALL 
             ENOUGH TO BE TREATED AS ZERO. IF NOT, PLEASE USE THE SOLUTION 
             CONTROLS TO RESET THE CRITERION FOR ZERO HEAT FLUX.

 MAXIMUM NON-PRESCRIBED INCREMENT IN TEMPERATURE IS   0.405    

 ITERATION SUMMARY FOR THE INCREMENT:   5 TOTAL ITERATIONS, OF WHICH
   0 ARE SEVERE DISCONTINUITY ITERATIONS AND  5 ARE EQUILIBRIUM ITERATIONS.

 TIME INCREMENT COMPLETED   8.85    ,  FRACTION OF STEP COMPLETED   1.00    
 STEP TIME COMPLETED        885.    ,  TOTAL TIME COMPLETED        2.685E+03


          THE ANALYSIS HAS BEEN COMPLETED



     ANALYSIS SUMMARY:
     TOTAL OF        135  INCREMENTS
                       6  CUTBACKS IN AUTOMATIC INCREMENTATION
                     457  ITERATIONS INCLUDING CONTACT ITERATIONS IF PRESENT
                     457  PASSES THROUGH THE EQUATION SOLVER OF WHICH 
                     457  INVOLVE MATRIX DECOMPOSITION, INCLUDING
                       0  DECOMPOSITION(S) OF THE MASS MATRIX
                       1  REORDERING OF EQUATIONS TO MINIMIZE WAVEFRONT
                       0  ADDITIONAL RESIDUAL EVALUATIONS FOR LINE SEARCHES
                       0  ADDITIONAL OPERATOR EVALUATIONS FOR LINE SEARCHES
                       6  WARNING MESSAGES DURING USER INPUT PROCESSING
                50321430  WARNING MESSAGES DURING ANALYSIS
                50320970  ANALYSIS WARNINGS ARE NUMERICAL PROBLEM MESSAGES
                       3  ANALYSIS WARNINGS ARE NEGATIVE EIGENVALUE MESSAGES
                       0  ERROR MESSAGES



     JOB TIME SUMMARY
       USER TIME (SEC)      =     7.03E+04
       SYSTEM TIME (SEC)    =     8.37E+02
       TOTAL CPU TIME (SEC) =     7.12E+04
       WALLCLOCK TIME (SEC) =        10176
       MEMORY PEAK (GB)     =           18
