*Heading
*Preprint, echo=NO, model=NO, history=NO, contact=NO
**
** PARTS
**
*Part, name=Base
*Node
      1,         170.,  -42.2999992,           0.
      2,         170.,  -40.2999992,           0.
      3,         167.,  -37.2999992,           0.
      4,         148.,  -37.2999992,           0.
      5,         140.,  -29.2999992,           0.
      6,         140.,   54.7000008,           0.
      7,         137.,   57.7000008,           0.
      8,   168.345566,  -42.2999992,   23.6594276
      9,    163.41449,  -42.2999992,   46.8583488
     10,   155.302734,  -42.2999992,   69.1452255
     11,   144.168182,  -42.2999992,   90.0862732
     12,   130.227554,  -42.2999992,   109.273895
     13,   113.752205,  -42.2999992,   126.334618
     14,   95.0627899,  -42.2999992,   140.936386
     15,   74.5230942,  -42.2999992,   152.794983
     16,   52.5328903,  -42.2999992,   161.679611
     17,   29.5201893,  -42.2999992,   167.417313
     18,   5.93291426,  -42.2999992,   169.896439
     19,  -17.7698383,  -42.2999992,   169.068726
     20,  -41.1267204,  -42.2999992,   164.950272
** ... 8584 like lines cut
*Element, type=C3D10M
   1,  805,  806,  807,  808, 1295, 1294, 1293, 1297, 1296, 1298
   2,  805,  808,  809,  810, 1297, 1300, 1299, 1302, 1301, 1303
   3,  805,  811,  812,  813, 1306, 1305, 1304, 1308, 1307, 1309
   4,  805,  813,  812,  814, 1308, 1309, 1304, 1311, 1310, 1312
   5,  805,  809,  813,  810, 1299, 1313, 1308, 1302, 1303, 1314
   6,  815,  816,  817,  818, 1317, 1316, 1315, 1319, 1318, 1320
   7,   78,  304,  477,  122, 1323, 1322, 1321, 1325, 1324, 1326
   8,  819,  820,  817,  815, 1329, 1328, 1327, 1331, 1330, 1315
   9,  815,  816,  821,  820, 1317, 1333, 1332, 1330, 1334, 1335
  10,  122,  304,   77,   78, 1324, 1337, 1336, 1325, 1323, 1338
  11,  815,  821,  822,  820, 1332, 1340, 1339, 1330, 1335, 1341
  12,   78,   79,  477,  357, 1343, 1342, 1321, 1345, 1344, 1346
  13,  476,  326,  475,  124, 1349, 1348, 1347, 1351, 1350, 1352
  14,  823,  824,  825,  818, 1355, 1354, 1353, 1357, 1356, 1358
  15,   35,   79,   34,  357, 1361, 1360, 1359, 1362, 1344, 1363
  16,  823,  826,  822,  827, 1366, 1365, 1364, 1368, 1367, 1369
  17,  815,  822,  823,  828, 1339, 1364, 1370, 1372, 1371, 1373
  18,  823,  829,  826,  830, 1375, 1374, 1366, 1377, 1376, 1378
  19,  831,  832,  833,  834, 1381, 1380, 1379, 1383, 1382, 1384
  20,  834,  835,  831,  832, 1386, 1385, 1383, 1382, 1387, 1381
** ... 5199 like lines cut
*Nset, nset=Set-4, generate
    1,  8604,     1
*Elset, elset=Set-4, generate
    1,  5219,     1
** Section: Section-1
*Solid Section, elset=Set-4, material=Material-1
,
*End Part
**  
*Part, name=Link_1
*Node
      1,         137.,     -153.125,           0.
      2,         170.,      -30.125,           0.
      3,         170.,      -30.125,          50.
      4,         170.,      -80.125,           0.
      5,         170.,      -30.125,         -50.
      6,         170.,       19.875,           0.
      7,         170.,    17.309164,    15.811388
      8,         140.,     -150.125,           0.
      9,         140.,       19.875,           0.
     10,         140.,      -80.125,           0.
     11,   139.104279,    17.309164,    15.811388
     12,         140.,   26.8750019,           0.
     13,   20.0000019,      146.875,           0.
     14,   135.605545,     -153.125,   19.4971333
     15,   131.450531,     -153.125,   38.5973587
     16,   124.619583,     -153.125,   56.9118576
     17,   115.251732,     -153.125,   74.0677948
     18,   103.537689,     -153.125,   89.7159195
     19,   89.7159195,     -153.125,   103.537689
     20,   74.0677948,     -153.125,   115.251732
** ... 20801 like lines cut
*Element, type=C3D10M
    1,  1022,  1023,  1024,  1025,  2873,  2872,  2871,  2875,  2874,  2876
    2,  1026,  1027,  1028,  1022,  2879,  2878,  2877,  2881,  2880,  2882
    3,  1029,  1030,  1031,  1032,  2885,  2884,  2883,  2887,  2886,  2888
    4,  1029,  1032,  1033,  1022,  2887,  2890,  2889,  2892,  2891,  2893
    5,  1034,  1035,  1036,  1037,  2896,  2895,  2894,  2898,  2897,  2899
    6,  1022,  1032,  1038,  1025,  2891,  2901,  2900,  2875,  2902,  2903
    7,  1022,  1028,  1026,  1029,  2882,  2877,  2881,  2892,  2904,  2905
    8,  1022,  1032,  1025,  1024,  2891,  2902,  2875,  2871,  2906,  2876
    9,  1039,  1040,  1041,  1042,  2909,  2908,  2907,  2911,  2910,  2912
   10,    52,  1043,   228,   210,  2915,  2914,  2913,  2917,  2916,  2918
   11,  1039,  1044,  1045,  1046,  2921,  2920,  2919,  2923,  2922,  2924
   12,  1039,  1047,  1044,  1046,  2926,  2925,  2921,  2923,  2927,  2922
   13,  1039,  1041,  1046,  1045,  2907,  2928,  2923,  2919,  2929,  2924
   14,  1045,  1039,  1042,  1048,  2919,  2911,  2930,  2932,  2931,  2933
   15,  1039,  1049,  1050,  1051,  2936,  2935,  2934,  2938,  2937,  2939
   16,  1039,  1045,  1047,  1048,  2919,  2940,  2926,  2931,  2932,  2941
   17,  1039,  1052,  1051,  1050,  2943,  2942,  2938,  2934,  2944,  2939
   18,  1039,  1053,  1052,  1042,  2946,  2945,  2943,  2911,  2947,  2948
   19,  1052,  1026,  1054,  1055,  2951,  2950,  2949,  2953,  2952,  2954
   20,  1056,  1057,  1058,   222,  2957,  2956,  2955,  2959,  2958,  2960
** ... 14043 like lines cut
*Nset, nset=Set-4, generate
     1,  20821,      1
*Elset, elset=Set-4, generate
     1,  14063,      1
** Section: Section-1
*Solid Section, elset=Set-4, material=Material-1
,
*End Part
**  
*Part, name=Link_2
*Node
      1,  -162.503815,   23.5190392,          95.
      2,  -165.187088,   24.8606796,          92.
      3,  -200.465729,   28.2269821,           0.
      4,  -121.246986,   103.108231,           0.
      5,   547.627991,   65.4243546,           0.
      6,   599.534241,   10.5114393,           0.
      7,   599.534241,  -5.51143932,           0.
      8,   547.627991,  -60.4243546,           0.
      9,  -121.246986,  -98.1082306,           0.
     10,  -200.465729,  -23.2269802,           0.
     11,  -165.187088,   24.8606796,          70.
     12,   547.627991,   65.4243546,          70.
     13,   599.534241,   10.5114393,          70.
     14,   599.534241,  -5.51143932,          70.
     15,   547.627991,  -60.4243546,          70.
     16,  -121.246986,  -98.1082306,          70.
     17,  -200.465729,  -23.2269802,          70.
     18,  -200.465729,   28.2269821,          70.
     19,  -121.246986,   103.108231,          70.
     20,   521.073792,   11.9868326,          70.
** ... 4109 like lines cut
*Element, type=C3D10M
   1,  441,  442,   96,   44,  652,  651,  650,  654,  653,  655
   2,  443,  442,   96,  441,  657,  651,  656,  658,  652,  650
   3,  444,  132,  354,  133,  661,  660,  659,  663,  662,  664
   4,  444,  445,  354,  132,  666,  665,  659,  661,  667,  660
   5,  446,  324,  200,  447,  670,  669,  668,  672,  671,  673
   6,  444,  446,  448,  447,  676,  675,  674,  677,  672,  678
   7,  447,  324,  200,  323,  671,  669,  673,  680,  679,  681
   8,  449,  450,  451,  452,  684,  683,  682,  686,  685,  687
   9,  451,  405,  410,  449,  690,  689,  688,  682,  691,  692
  10,  442,   96,  453,  443,  651,  694,  693,  657,  656,  695
  11,  410,  454,  449,  405,  697,  696,  692,  689,  698,  691
  12,  449,  451,  455,  410,  682,  700,  699,  692,  688,  701
  13,  456,  457,  458,  459,  704,  703,  702,  706,  705,  707
  14,  456,  460,  426,  461,  710,  709,  708,  712,  711,  713
  15,  456,  462,  404,  411,  716,  715,  714,  718,  717,  719
  16,  456,  457,  463,  458,  704,  721,  720,  702,  703,  722
  17,  456,  460,  458,  463,  710,  723,  702,  720,  724,  722
  18,  464,  465,  440,  466,  727,  726,  725,  729,  728,  730
  19,  467,  464,  465,  430,  732,  727,  731,  734,  733,  735
  20,  464,  467,  468,  469,  732,  737,  736,  739,  738,  740
** ... 2374 like lines cut
*Nset, nset=Set-4, generate
    1,  4129,     1
*Elset, elset=Set-4, generate
    1,  2394,     1
** Section: Section-1
*Solid Section, elset=Set-4, material=Material-1
,
*End Part
**  
*Part, name=Link_3
*Node
      1,   180.195343,  -8.42460346,   13.8342104
      2,   179.195343,  -7.67963982,   14.5013161
      3,   177.195343,  -7.67963982,   14.5013161
      4,   175.195343,   -9.9145298,          7.5
      5,   175.195343,  -14.9145298,         12.5
      6,   175.195343,   -9.9145298,         17.5
      7,   175.195343,  -4.91453028,         12.5
      8,   175.195343,  -5.91453028,         17.5
      9,   175.195343,  -4.91453028,         16.5
     10,   166.195343,  -4.91453028,         16.5
     11,   166.195343,  -5.91453028,         17.5
     12,   175.195343,  -14.9145298,         16.5
     13,   175.195343,  -13.9145298,         17.5
     14,   166.195343,  -13.9145298,         17.5
     15,   166.195343,  -14.9145298,         16.5
     16,   175.195343,  -14.9145298,          8.5
     17,   175.195343,  -13.9145298,          7.5
     18,   175.195343,  -5.91453028,          7.5
     19,   175.195343,  -4.91453028,          8.5
     20,   166.195343,  -5.91453028,          7.5
** ... 4954 like lines cut
*Element, type=C3D10M
   1,  145,  570,  571,  572,  796,  795,  794,  798,  797,  799
   2,  570,  572,  145,  573,  797,  798,  796,  801,  800,  802
   3,  570,  574,  575,  576,  805,  804,  803,  807,  806,  808
   4,  218,  577,  233,  219,  811,  810,  809,  813,  812,  814
   5,  570,  578,  441,  520,  817,  816,  815,  819,  818,  820
   6,  520,  574,  575,  570,  822,  804,  821,  819,  805,  803
   7,  440,  570,  579,  578,  825,  824,  823,  826,  817,  827
   8,  578,  441,  440,  570,  816,  828,  826,  817,  815,  825
   9,  570,  580,  572,  579,  830,  829,  797,  824,  831,  832
  10,  581,  582,  577,  583,  835,  834,  833,  837,  836,  838
  11,  581,  584,  585,  586,  841,  840,  839,  843,  842,  844
  12,  581,  587,  586,  210,  846,  845,  843,  848,  847,  849
  13,  581,  209,  587,  210,  851,  850,  846,  848,  852,  847
  14,  581,  218,  587,  209,  854,  853,  846,  851,  855,  850
  15,  581,  587,  218,  577,  846,  853,  854,  833,  856,  811
  16,  581,  208,  583,  577,  858,  857,  837,  833,  859,  838
  17,  581,  583,  208,  209,  837,  857,  858,  851,  860,  861
  18,  581,  585,  583,  209,  839,  862,  837,  851,  863,  860
  19,  585,  588,  589,  341,  866,  865,  864,  868,  867,  869
  20,  581,  585,  209,  586,  839,  863,  851,  843,  844,  870
** ... 2802 like lines cut
*Nset, nset=Set-4, generate
    1,  4974,     1
*Elset, elset=Set-4, generate
    1,  2822,     1
** Section: Section-1
*Solid Section, elset=Set-4, material=Material-1
,
*End Part
**  
**
** ASSEMBLY
**
*Assembly, name=Assembly
**  
*Instance, name=Base-1, part=Base
*End Instance
**  
*Instance, name=Link_1-1, part=Link_1
          0.,   210.825001,           0.
*End Instance
**  
*Instance, name=Link_2-1, part=Link_2
        265.,   283.776387,    62.397931
        265.,   283.776387,    62.397931, 264.552786417577, 283.001790311963, 62.8451445824229, 104.4775108398
*End Instance
**  
*Instance, name=Link_3-1, part=Link_3
        125., 659.886717114387, 440.002791776802
        125., 659.886717114387, 440.002791776802, 125.684791080437, 659.637473555865, 440.687582857239, 207.99088954809
*End Instance
**  
*Node
      1,           0.,   57.7000008,  8.3888305e-15
*Node
      2,           0.,   57.7000008,  8.3888305e-15
*Node
      3,         170.,   180.699997,  2.30677529e-07
*Node
      4,         170.,   760.937012,         335.
*Element, type=CONN3D2
1, 1, 2
*Connector Section, elset=hinge1, behavior=Hinge
Hinge,
Hinge_1,
*Element, type=CONN3D2
2, 2, 3
*Connector Section, elset=hinge2, behavior=Hinge
Hinge,
Hinge_2,
*Element, type=CONN3D2
3, 3, 4
*Connector Section, elset=hinge3, behavior=Hinge
Hinge,
Hinge_3,
*Nset, nset=base, instance=Base-1, generate
    1,  8604,     1
*Elset, elset=base, instance=Base-1, generate
    1,  5219,     1
*Nset, nset=refPt-base
 1,
*Nset, nset=link1, instance=Link_1-1, generate
     1,  20821,      1
*Elset, elset=link1, instance=Link_1-1, generate
     1,  14063,      1
*Nset, nset=refPt-link1
 2,
*Nset, nset=link2, instance=Link_2-1, generate
    1,  4129,     1
*Elset, elset=link2, instance=Link_2-1, generate
    1,  2394,     1
*Nset, nset=refPt-link2
 3,
*Nset, nset=link3, instance=Link_3-1, generate
    1,  4974,     1
*Elset, elset=link3, instance=Link_3-1, generate
    1,  2822,     1
*Nset, nset=refPt-link3
 4,
*Nset, nset=hinge1
 1, 2
*Elset, elset=hinge1
 1,
*Nset, nset=hinge2
 2, 3
*Elset, elset=hinge2
 2,
*Nset, nset=hinge3
 3, 4
*Elset, elset=hinge3
 3,
*Orientation, name=Hinge_1
          0.,           1.,           0.,           0.,           0.,           1.
1, 0.
*Orientation, name=Hinge_2
          1.,           0.,           0.,           0.,           0.,           1.
1, 0.
*Orientation, name=Hinge_3
         -1.,           0.,           0.,           0.,           0.,           1.
1, 0.
** Constraint: base
*Rigid Body, ref node=refPt-base, elset=base
** Constraint: link1
*Rigid Body, ref node=refPt-link1, elset=link1
** Constraint: link2
*Rigid Body, ref node=refPt-link2, elset=link2
** Constraint: link3
*Rigid Body, ref node=refPt-link3, elset=link3
*End Assembly
*Connector Behavior, name=Hinge
*Connector Elasticity, component=4
500.,
*Connector Damping, component=4
10000.,
** 
** MATERIALS
** 
*Material, name=Material-1
*Density
 7.8e-09,
*Elastic
210000., 0.3
** 
** BOUNDARY CONDITIONS
** 
** Name: Base_fix Type: Displacement/Rotation
*Boundary
refPt-base, 1, 1
refPt-base, 2, 2
refPt-base, 3, 3
refPt-base, 4, 4
refPt-base, 5, 5
refPt-base, 6, 6
** ----------------------------------------------------------------
** 
** STEP: Step-1
** 
*Step, name=Step-1
Robot Motion
*Dynamic, Explicit, direct user control
0.01, 500.
*Bulk Viscosity
0.06, 1.2
** 
** OUTPUT REQUESTS
** 
*Restart, write, number interval=1, time marks=NO
** 
*Output, field, variable=PRESELECT
** 
*Output, history, variable=PRESELECT
** 
*End Step
