*Heading
** 
*Node
      1,          55.,          35.
      2,          30.,          60.
      3,          30.,          35.
      4,          80.,          60.
      5,          30.,          10.
      6,          80.,          35.
      7,          80.,          10.
      8,   52.9166679,   37.0833321
      9,   50.8333321,   39.1666679
     10,        48.75,        41.25
     11,   46.6666679,   43.3333321
     12,   44.5833321,   45.4166679
     13,         42.5,         47.5
     14,   40.4166679,   49.5833321
     15,   38.3333321,   51.6666679
     16,        36.25,        53.75
     17,   34.1666679,   55.8333321
     18,   32.0833321,   57.9166679
     19,          30.,       56.875
     20,          30.,        53.75
** ... 368 like lines cut
*Element, type=CAX3H, elset=rubber_elements
1, 149, 140, 126
2, 142, 141, 154
46, 213, 209, 208
140, 255, 254, 251
141, 253, 245, 246
182, 282, 273, 259
183, 287, 275, 274
227, 345, 339, 340
228, 318, 117, 118
229, 350, 337, 346
317, 380, 359, 386
318, 376, 369, 368
319, 379, 360, 361
320, 388, 381, 376
*Element, type=CAX4RH, elset=rubber_elements
 3, 126,  11,  12, 133
 4,  18,   2,  19, 127
 5, 127,  19,  20, 153
 6, 153, 129, 152, 127
 7, 128, 152, 129, 155
 8,  22, 130, 129,  21
 9,  23, 131, 130,  22
10, 156, 148, 137, 145
11, 143, 138, 132, 147
12, 144, 156, 145, 155
13, 139, 134,  29,  30
14,  17,  18, 127, 152
15,  16, 128, 135,  15
16, 135, 136,  14,  15
17, 155, 145, 135, 128
18, 132, 138,  27,  28
19, 138, 146,  26,  27
20,   3,  26, 146,  25
21, 154, 139,  30,  31
22,  11, 126, 140,  10
** ... 327 like lines cut
*Elset, elset=rubber_tie_s_S1
 152, 164, 173, 176
*Elset, elset=rubber_tie_s_S2
  4,  5, 30, 35
*Elset, elset=rubber_tie_s_S3
 146, 159, 162, 165
*Elset, elset=rubber_tie_s_S4
  8,  9, 20, 28
*Surface, type=ELEMENT, name=rubber_tie_s
rubber_tie_s_S1, S1
rubber_tie_s_S2, S2
rubber_tie_s_S3, S3
rubber_tie_s_S4, S4
*Solid Section, elset=rubber_elements, material=rubber
**
*System
          0.,          5.,          0.,          1.,          5.,          0.
*Node
    389,          30.,          55.
    390,         27.5,          55.
    391,          25.,          55.
    392,          30.,       51.875
    393,         27.5,       51.875
    394,          25.,       51.875
    395,          30.,        48.75
    396,         27.5,        48.75
    397,          25.,        48.75
    398,          30.,       45.625
    399,         27.5,       45.625
    400,          25.,       45.625
    401,          30.,         42.5
    402,         27.5,         42.5
    403,          25.,         42.5
    404,          30.,       39.375
    405,         27.5,       39.375
    406,          25.,       39.375
    407,          30.,        36.25
    408,         27.5,        36.25
** ... 31 like lines cut
*Element, type=CAX4I, elset=tube_elements
362, 389, 390, 393, 392
363, 390, 391, 394, 393
364, 392, 393, 396, 395
365, 393, 394, 397, 396
366, 395, 396, 399, 398
367, 396, 397, 400, 399
368, 398, 399, 402, 401
369, 399, 400, 403, 402
370, 401, 402, 405, 404
371, 402, 403, 406, 405
372, 404, 405, 408, 407
373, 405, 406, 409, 408
374, 407, 408, 411, 410
375, 408, 409, 412, 411
376, 410, 411, 414, 413
377, 411, 412, 415, 414
378, 413, 414, 417, 416
379, 414, 415, 418, 417
380, 416, 417, 420, 419
381, 417, 418, 421, 420
** ... 12 like lines cut
*Elset, elset=tube_tie_m_S4, generate
362, 392,   2
*Surface, type=ELEMENT, name=tube_tie_m
tube_tie_m_S4, S4
*Elset, elset=tube_couple_s_S2, generate
363, 393,   2
*Surface, type=ELEMENT, name=tube_couple_s
tube_couple_s_S2, S2
*Solid Section, elset=tube_elements, material=steel
**
*System
*Node
    440,           0.,          35.,           0.
*Nset, nset=fix
   4,   6,   7,  85,  86,  87,  88,  89,  90,  91, 119, 120, 121, 122, 123, 124
 125,
*Nset, nset=loadpt
440,
**
*Tie, name=bond, adjust=yes
rubber_tie_s, tube_tie_m
**
*Coupling, constraint name=coupling, ref node=loadpt, surface=tube_couple_s
*Kinematic
** 
*Material, name=rubber
*Hyperelastic, yeoh, test data input, moduli=INSTANTANEOUS
*Biaxial Test Data
     0.,     0.
 0.0421, 0.0146
 0.0777, 0.0304
 0.1086, 0.0459
 0.1361, 0.0616
 0.1605,  0.077
 0.1828, 0.0926
 0.2031, 0.1081
 0.2228, 0.1236
 0.2396, 0.1391
 0.2566, 0.1547
 0.2713, 0.1705
 0.2869, 0.1863
 0.2979, 0.2024
 0.3117, 0.2184
 0.3241, 0.2349
 0.3367, 0.2517
  0.349, 0.2685
 0.3607, 0.2856
 0.3713, 0.3029
** ... 30 like lines cut
*Uniaxial Test Data
     0.,     0.
 0.0281, 0.0186
 0.0515, 0.0372
 0.0716, 0.0575
 0.0906, 0.0777
 0.1085, 0.0974
 0.1254, 0.1172
 0.1414, 0.1374
 0.1566, 0.1581
 0.1718, 0.1778
 0.1848, 0.1991
 0.1985, 0.2202
  0.211, 0.2408
 0.2229, 0.2615
 0.2348, 0.2826
 0.2457, 0.3039
 0.2572, 0.3252
 0.2671, 0.3465
 0.2772, 0.3684
  0.287, 0.3897
** ... 23 like lines cut
*Volumetric Test Data
      0.,     1.
  1.2264, 0.9995
  2.2076, 0.9989
  3.1707, 0.9986
  4.1608, 0.9978
  5.1479, 0.9974
  6.0333,  0.997
  6.9696, 0.9965
  7.8969, 0.9961
  8.6746, 0.9958
   9.539, 0.9953
 10.4454, 0.9949
  11.262, 0.9944
 12.1384, 0.9941
  12.943, 0.9938
 13.7686, 0.9933
 14.7258,  0.993
 15.4377, 0.9926
 16.2962, 0.9922
 17.1278, 0.9917
** ... 225 like lines cut
*Viscoelastic, time=RELAXATION TEST DATA
*Shear Test Data
     1.,  0.1
 0.9769,  0.2
 0.9646,  0.3
 0.9557,  0.4
  0.949,  0.5
 0.9436,  0.6
  0.939,  0.7
 0.9353,  0.8
 0.9319,  0.9
 0.9296,   1.
  0.911,   2.
 0.9024,   3.
 0.8965,   4.
 0.8924,   5.
 0.8884,   6.
 0.8858,   7.
 0.8833,   8.
 0.8816,   9.
 0.8794,  10.
 0.8663,  20.
** ... 30 like lines cut
*Material, name=steel
*Elastic
200000., 0.3
** 
*Step, name="axial load", nlgeom=YES
*Static
0.025, 1.
** 
*Boundary
loadpt, 1, 1
loadpt, 2, 2, 10.
loadpt, 6, 6
*Boundary
fix, ENCASTRE
** 
*Output, field, variable=PRESELECT
*Element Output, elset=rubber_elements, directions=YES
NE, 
**
*Output, history, variable=PRESELECT
*Node Output, nset=loadpt
RF2, U2
*End Step
