 Abaqus/Standard 2023.HF4                  DATE 22-Sep-2024 TIME 16:36:57
 SUMMARY OF JOB INFORMATION:
 STEP  INC ATT SEVERE EQUIL TOTAL  TOTAL      STEP       INC OF       DOF    IF
               DISCON ITERS ITERS  TIME/    TIME/LPF    TIME/LPF    MONITOR RIKS
               ITERS               FREQ
   1     1   1     0     1     1  720.       720.       720.0     
   1     2   1     0     1     1  1.44e+03   1.44e+03   720.0     
   1     3   1     0     1     1  2.16e+03   2.16e+03   720.0     
   1     4   1     0     1     1  2.88e+03   2.88e+03   720.0     
   1     5   1     0     1     1  3.60e+03   3.60e+03   720.0     
   1     6   1     0     1     1  4.32e+03   4.32e+03   720.0     
   1     7   1     0     1     1  5.04e+03   5.04e+03   720.0     
   1     8   1     0     1     1  5.76e+03   5.76e+03   720.0     
   1     9   1     0     1     1  6.48e+03   6.48e+03   720.0     
   1    10   1     0     1     1  7.20e+03   7.20e+03   720.0     
   2     1   1     0     1     1  7.21e+03   6.65       6.650     
   2     2   1     0     1     1  7.21e+03   13.3       6.650     
   2     3   1     0     1     1  7.22e+03   20.0       6.650     
   2     4   1     0     1     1  7.23e+03   26.6       6.650     
   2     5   1     0     1     1  7.23e+03   33.2       6.650     
   2     6   1     0     1     1  7.24e+03   39.9       6.650     
   2     7   1     0     1     1  7.25e+03   46.5       6.650     
   2     8   1     0     1     1  7.25e+03   53.2       6.650     
   2     9   1     0     1     1  7.26e+03   59.8       6.650     
   2    10   1     0     1     1  7.27e+03   66.5       6.650     
   2    11   1     0     1     1  7.27e+03   73.2       6.650     
   2    12   1     0     1     1  7.28e+03   79.8       6.650     
   2    13   1     0     1     1  7.29e+03   86.5       6.650     
   2    14   1     0     1     1  7.29e+03   93.1       6.650     
   2    15   1     0     1     1  7.30e+03   99.8       6.650     
   2    16   1     0     1     1  7.31e+03   106.       6.650     
   2    17   1     0     1     1  7.31e+03   113.       6.650     
   2    18   1     0     1     1  7.32e+03   120.       6.650     
   2    19   1     0     1     1  7.33e+03   126.       6.650     
   2    20   1     0     1     1  7.33e+03   133.       6.650     
   2    21   1     0     1     1  7.34e+03   140.       6.650     
   2    22   1     0     1     1  7.35e+03   146.       6.650     
   2    23   1     0     1     1  7.35e+03   153.       6.650     
   2    24   1     0     1     1  7.36e+03   160.       6.650     
   2    25   1     0     1     1  7.37e+03   166.       6.650     
   2    26   1     0     2     2  7.37e+03   173.       6.650     
   2    27   1     0     1     1  7.38e+03   180.       6.650     
   2    28   1     0     2     2  7.39e+03   186.       6.650     
   2    29   1     0     2     2  7.39e+03   193.       6.650     
   2    30   1     0     2     2  7.40e+03   200.       6.650     
   2    31   1     0     2     2  7.41e+03   206.       6.650     
   2    32   1     0     2     2  7.41e+03   213.       6.650     
   2    33   1     0     2     2  7.42e+03   219.       6.650     
   2    34   1     0     2     2  7.43e+03   226.       6.650     
   2    35   1     0     2     2  7.43e+03   233.       6.650     
   2    36   1     0     2     2  7.44e+03   239.       6.650     
   2    37   1     0     2     2  7.45e+03   246.       6.650     
   2    38   1     0     2     2  7.45e+03   253.       6.650     
   2    39   1     0     2     2  7.46e+03   259.       6.650     
   2    40   1     0     2     2  7.47e+03   266.       6.650     
   2    41   1     0     2     2  7.47e+03   273.       6.650     
   2    42   1     0     2     2  7.48e+03   279.       6.650     
   2    43   1     0     2     2  7.49e+03   286.       6.650     
   2    44   1     0     2     2  7.49e+03   293.       6.650     
   2    45   1     0     2     2  7.50e+03   299.       6.650     
   2    46   1     0     2     2  7.51e+03   306.       6.650     
   2    47   1     0     3     3  7.51e+03   313.       6.650     
   2    48   1     0     3     3  7.52e+03   319.       6.650     
   2    49   1     0     4     4  7.53e+03   326.       6.650     
   2    50   1     0     3     3  7.53e+03   332.       6.650     
   2    51   1     0     3     3  7.54e+03   339.       6.650     
   2    52   1     0     3     3  7.55e+03   346.       6.650     
   2    53   1     0     3     3  7.55e+03   352.       6.650     
   2    54   1     0     3     3  7.56e+03   359.       6.650     
   2    55   1     0     2     2  7.57e+03   366.       6.650     
   2    56   1     0     2     2  7.57e+03   372.       6.650     
   2    57   1     0     2     2  7.58e+03   379.       6.650     
   2    58   1     0     2     2  7.59e+03   386.       6.650     
   2    59   1     0     3     3  7.59e+03   392.       6.650     
   2    60   1     0     2     2  7.60e+03   399.       6.650     
   2    61   1     0     2     2  7.61e+03   406.       6.650     
   2    62   1     0     2     2  7.61e+03   412.       6.650     
   2    63   1     0     5     5  7.62e+03   419.       6.650     
   2    64   1     0     5     5  7.63e+03   426.       6.650     
   2    65   1     0     6     6  7.63e+03   432.       6.650     
   2    66   1     0     7     7  7.64e+03   439.       6.650     
   2    67   1     0     6     6  7.65e+03   446.       6.650     
   2    68   1     0     7     7  7.65e+03   452.       6.650     
   2    69   1     0     7     7  7.66e+03   459.       6.650     
   2    70   1U    0     4     4  7.66e+03   459.       6.650     
