1

   Abaqus 2023.HF4                                  Date 22-Sep-2024   Time 16:36:51
   For use by AALTO UNIVERSITY under license from Dassault Systemes or its subsidiary.

                                                                                 
                                                                                 
 STEP    1     INCREMENT     1     STEP TIME    0.00    


                        S T E P       1     C O U P L E D - T E M P E R A T U R E - D I S P L A C E M E N T   A N A L Y S I S


                                                                                          

          FIXED TIME INCREMENTS
          TIME INCREMENT IS                                     720.    
          TIME PERIOD IS                                       7.200E+03

          CREEP AND SWELLING EFFECTS ARE OMITTED IN THIS STEP
          THE RATE DEPENDENCY WILL BE CONSIDERED IN THIS STEP

          CREEP AND SWELLING EFFECTS WILL BE IGNORED.

 CONVERGENCE TOLERANCE PARAMETERS FOR FORCE    
     CRITERION FOR RESIDUAL FORCE     FOR A NONLINEAR PROBLEM          5.000E-03
     CRITERION FOR DISP.    CORRECTION IN A NONLINEAR PROBLEM          1.000E-02
     INITIAL VALUE OF TIME AVERAGE FORCE                               1.000E-02
     AVERAGE FORCE     IS TIME AVERAGE FORCE    
     ALTERNATE CRIT. FOR RESIDUAL FORCE     FOR A NONLINEAR PROBLEM    2.000E-02
     CRITERION FOR ZERO FORCE     RELATIVE TO TIME AVRG. FORCE         1.000E-05
     CRITERION FOR RESIDUAL FORCE     WHEN THERE IS ZERO FLUX          1.000E-05
     CRITERION FOR DISP.    CORRECTION WHEN THERE IS ZERO FLUX         1.000E-03
     CRITERION FOR RESIDUAL FORCE     FOR A LINEAR INCREMENT           1.000E-08
     FIELD CONVERSION RATIO                                             1.00    
     CRITERION FOR ZERO FORCE     REL. TO TIME AVRG. MAX. FORCE        1.000E-05
     CRITERION FOR ZERO DISP.    RELATIVE TO CHARACTERISTIC LENGTH     1.000E-08

 CONVERGENCE TOLERANCE PARAMETERS FOR HEAT FLUX
     CRITERION FOR RESIDUAL HEAT FLUX FOR A NONLINEAR PROBLEM          5.000E-03
     CRITERION FOR TEMP.    CORRECTION IN A NONLINEAR PROBLEM          1.000E-02
     INITIAL VALUE OF TIME AVERAGE HEAT FLUX                           1.000E-02
     AVERAGE HEAT FLUX IS TIME AVERAGE HEAT FLUX
     ALTERNATE CRIT. FOR RESIDUAL HEAT FLUX FOR A NONLINEAR PROBLEM    2.000E-02
     CRITERION FOR ZERO HEAT FLUX RELATIVE TO TIME AVRG. HEAT FLUX     1.000E-05
     CRITERION FOR RESIDUAL HEAT FLUX WHEN THERE IS ZERO FLUX          1.000E-05
     CRITERION FOR TEMP.    CORRECTION WHEN THERE IS ZERO FLUX         1.000E-03
     CRITERION FOR RESIDUAL HEAT FLUX FOR A LINEAR INCREMENT           1.000E-08
     FIELD CONVERSION RATIO                                             1.00    
     CRITERION FOR ZERO HEAT FLUX REL. TO TIME AVRG. MAX. HEAT FLUX    1.000E-05

     VOLUMETRIC STRAIN COMPATIBILITY TOLERANCE FOR HYBRID SOLIDS       1.000E-05
     AXIAL STRAIN COMPATIBILITY TOLERANCE FOR HYBRID BEAMS             1.000E-05
     TRANS. SHEAR STRAIN COMPATIBILITY TOLERANCE FOR HYBRID BEAMS      1.000E-05
     SOFT CONTACT CONSTRAINT COMPATIBILITY TOLERANCE FOR P>P0          5.000E-03
     SOFT CONTACT CONSTRAINT COMPATIBILITY TOLERANCE FOR P=0.0         0.100    
     CONTACT FORCE ERROR TOLERANCE FOR CONVERT SDI=YES                 1.00    
     DISPLACEMENT COMPATIBILITY TOLERANCE FOR DCOUP ELEMENTS           1.000E-05
     ROTATION COMPATIBILITY TOLERANCE FOR DCOUP ELEMENTS               1.000E-05

 EQUILIBRIUM WILL BE CHECKED FOR SEVERE DISCONTINUITY ITERATIONS

 ITERATION CONTROL PARAMETERS:
     FIRST EQUILIBRIUM ITERATION FOR CONSECUTIVE DIVERGENCE CHECK              4
     EQUILIBRIUM ITERATION AFTER WHICH ALTERNATE RESIDUAL IS USED              9
     MAXIMUM EQUILIBRIUM ITERATIONS ALLOWED                                   16
     MAXIMUM ITERATIONS FOR SEVERE DISCONTINUITIES                            12
     GLOBAL STABILIZATION CONTROL IS NOT USED

          PRINT OF INCREMENT NUMBER, TIME, ETC., EVERY    1  INCREMENTS

     THE MAXIMUM NUMBER OF INCREMENTS IN THIS STEP IS                 1000000

          LARGE DISPLACEMENT THEORY WILL BE USED

          UNSYMMETRIC MATRIX STORAGE AND SOLUTION WILL BE USED

     LINEAR EXTRAPOLATION WILL BE USED

     CHARACTERISTIC ELEMENT LENGTH     1.919E-04

     DETAILS REGARDING ACTUAL SOLUTION WAVEFRONT REQUESTED

     DETAILED OUTPUT OF DIAGNOSTICS TO DATABASE REQUESTED

     PRINT OF INCREMENT NUMBER, TIME, ETC., TO THE MESSAGE FILE EVERY     1  INCREMENTS

     ELEMENT OPERATIONS WILL BE CARRIED OUT IN PARALLEL USING   8 THREADS ON 1 DOMAIN

     PARALLEL CONTACT TRACKING ENABLED


     COLLECTING MODEL CONSTRAINT INFORMATION FOR OVERCONSTRAINT CHECKS

     COLLECTING STEP CONSTRAINT INFORMATION FOR OVERCONSTRAINT CHECKS


  INCREMENT     1 STARTS. ATTEMPT NUMBER  1, TIME INCREMENT   720.    
 
     INITIAL ELEMENT LOAD BALANCE
            DOMAIN    1     THREAD    NUMBER OF ELEMENTS
                              1            8858
                              2            8776
                              3            8824
                              4            9064
                              5            9040
                              6            8952
                              7            8872
                              8            8704
 
	UNSYMMETRIC NEW DIRECT SPARSE SOLVER RUNNING ON
 	1 HOST x 1 MPI RANK PER HOST x 8 THREADS PER RANK
        NUMBER OF EQUATIONS:  221425
        NUMBER OF RHS:        1
        NUMBER OF FLOPS:      4.810e+11
        SOLVER ELAPSED TIME:  2.5s

               CONVERGENCE CHECKS FOR EQUILIBRIUM ITERATION     1


 AVERAGE FORCE                       0.00       TIME AVG. FORCE       1.000E-02
 ALL FORCE     RESIDUALS ARE ZERO
 ALL DISP.    INCREMENTS ARE ZERO
 ALL CORRECTION TO DISP.    ARE ZERO
          THERE IS ZERO FORCE     EVERYWHERE

 AVERAGE HEAT FLUX                   185.       TIME AVG. HEAT FLUX    185.    
 LARGEST RESIDUAL HEAT FLUX        -9.550E-11   AT NODE      42682   DOF 11
   INSTANCE: CHD2                                                                            
 LARGEST INCREMENT OF TEMP.          8.72       AT NODE          1   DOF 11
   INSTANCE: CHD2                                                                            
 LARGEST CORRECTION TO TEMP.         8.72       AT NODE          1   DOF 11
   INSTANCE: CHD2                                                                            
          THE HEAT FLUX EQUILIBRIUM RESPONSE WAS LINEAR IN THIS INCREMENT

 ITERATION SUMMARY FOR THE INCREMENT:   1 TOTAL ITERATIONS, OF WHICH
   0 ARE SEVERE DISCONTINUITY ITERATIONS AND  1 ARE EQUILIBRIUM ITERATIONS.

 TIME INCREMENT COMPLETED   720.    ,  FRACTION OF STEP COMPLETED  0.100    
 STEP TIME COMPLETED        720.    ,  TOTAL TIME COMPLETED         720.    


  INCREMENT     2 STARTS. ATTEMPT NUMBER  1, TIME INCREMENT   720.    
 
	UNSYMMETRIC NEW DIRECT SPARSE SOLVER RUNNING ON
 	1 HOST x 1 MPI RANK PER HOST x 8 THREADS PER RANK
        NUMBER OF EQUATIONS:  221425
        NUMBER OF RHS:        1
        NUMBER OF FLOPS:      4.810e+11
        SOLVER ELAPSED TIME:  2.5s

               CONVERGENCE CHECKS FOR EQUILIBRIUM ITERATION     1


 AVERAGE FORCE                       0.00       TIME AVG. FORCE       1.000E-02
 ALL FORCE     RESIDUALS ARE ZERO
 ALL DISP.    INCREMENTS ARE ZERO
 ALL CORRECTION TO DISP.    ARE ZERO
          THERE IS ZERO FORCE     EVERYWHERE

 AVERAGE HEAT FLUX                   111.       TIME AVG. HEAT FLUX    148.    
 LARGEST RESIDUAL HEAT FLUX        -7.503E-11   AT NODE      43975   DOF 11
   INSTANCE: CHD2                                                                            
 LARGEST INCREMENT OF TEMP.          2.91       AT NODE      35722   DOF 11
   INSTANCE: CHD2                                                                            
 LARGEST CORRECTION TO TEMP.        -8.72       AT NODE          1   DOF 11
   INSTANCE: CHD2                                                                            
          THE HEAT FLUX EQUILIBRIUM RESPONSE WAS LINEAR IN THIS INCREMENT

 ITERATION SUMMARY FOR THE INCREMENT:   1 TOTAL ITERATIONS, OF WHICH
   0 ARE SEVERE DISCONTINUITY ITERATIONS AND  1 ARE EQUILIBRIUM ITERATIONS.

 TIME INCREMENT COMPLETED   720.    ,  FRACTION OF STEP COMPLETED  0.200    
 STEP TIME COMPLETED       1.440E+03,  TOTAL TIME COMPLETED        1.440E+03


  INCREMENT     3 STARTS. ATTEMPT NUMBER  1, TIME INCREMENT   720.    
 
	UNSYMMETRIC NEW DIRECT SPARSE SOLVER RUNNING ON
 	1 HOST x 1 MPI RANK PER HOST x 8 THREADS PER RANK
        NUMBER OF EQUATIONS:  221425
        NUMBER OF RHS:        1
        NUMBER OF FLOPS:      4.810e+11
        SOLVER ELAPSED TIME:  2.5s

               CONVERGENCE CHECKS FOR EQUILIBRIUM ITERATION     1


 AVERAGE FORCE                       0.00       TIME AVG. FORCE       1.000E-02
 ALL FORCE     RESIDUALS ARE ZERO
 ALL DISP.    INCREMENTS ARE ZERO
 ALL CORRECTION TO DISP.    ARE ZERO
          THERE IS ZERO FORCE     EVERYWHERE

 AVERAGE HEAT FLUX                   33.5       TIME AVG. HEAT FLUX    110.    
 LARGEST RESIDUAL HEAT FLUX         5.627E-11   AT NODE      44264   DOF 11
   INSTANCE: CHD2                                                                            
 LARGEST INCREMENT OF TEMP.         0.903       AT NODE      36902   DOF 11
   INSTANCE: CHD2                                                                            
 LARGEST CORRECTION TO TEMP.        -2.01       AT NODE      35722   DOF 11
   INSTANCE: CHD2                                                                            
          THE HEAT FLUX EQUILIBRIUM RESPONSE WAS LINEAR IN THIS INCREMENT

 ITERATION SUMMARY FOR THE INCREMENT:   1 TOTAL ITERATIONS, OF WHICH
   0 ARE SEVERE DISCONTINUITY ITERATIONS AND  1 ARE EQUILIBRIUM ITERATIONS.

 TIME INCREMENT COMPLETED   720.    ,  FRACTION OF STEP COMPLETED  0.300    
 STEP TIME COMPLETED       2.160E+03,  TOTAL TIME COMPLETED        2.160E+03


  INCREMENT     4 STARTS. ATTEMPT NUMBER  1, TIME INCREMENT   720.    
 
	UNSYMMETRIC NEW DIRECT SPARSE SOLVER RUNNING ON
 	1 HOST x 1 MPI RANK PER HOST x 8 THREADS PER RANK
        NUMBER OF EQUATIONS:  221425
        NUMBER OF RHS:        1
        NUMBER OF FLOPS:      4.810e+11
        SOLVER ELAPSED TIME:  2.5s

               CONVERGENCE CHECKS FOR EQUILIBRIUM ITERATION     1


 AVERAGE FORCE                       0.00       TIME AVG. FORCE       1.000E-02
 ALL FORCE     RESIDUALS ARE ZERO
 ALL DISP.    INCREMENTS ARE ZERO
 ALL CORRECTION TO DISP.    ARE ZERO
          THERE IS ZERO FORCE     EVERYWHERE

 AVERAGE HEAT FLUX                   4.72       TIME AVG. HEAT FLUX    83.3    
 LARGEST RESIDUAL HEAT FLUX        -3.524E-11   AT NODE      42853   DOF 11
   INSTANCE: CHD2                                                                            
 LARGEST INCREMENT OF TEMP.         0.269       AT NODE      36902   DOF 11
   INSTANCE: CHD2                                                                            
 LARGEST CORRECTION TO TEMP.       -0.635       AT NODE      35722   DOF 11
   INSTANCE: CHD2                                                                            
          THE HEAT FLUX EQUILIBRIUM RESPONSE WAS LINEAR IN THIS INCREMENT

 ITERATION SUMMARY FOR THE INCREMENT:   1 TOTAL ITERATIONS, OF WHICH
   0 ARE SEVERE DISCONTINUITY ITERATIONS AND  1 ARE EQUILIBRIUM ITERATIONS.

 TIME INCREMENT COMPLETED   720.    ,  FRACTION OF STEP COMPLETED  0.400    
 STEP TIME COMPLETED       2.880E+03,  TOTAL TIME COMPLETED        2.880E+03


  INCREMENT     5 STARTS. ATTEMPT NUMBER  1, TIME INCREMENT   720.    
 
	UNSYMMETRIC NEW DIRECT SPARSE SOLVER RUNNING ON
 	1 HOST x 1 MPI RANK PER HOST x 8 THREADS PER RANK
        NUMBER OF EQUATIONS:  221425
        NUMBER OF RHS:        1
        NUMBER OF FLOPS:      4.810e+11
        SOLVER ELAPSED TIME:  2.4s

               CONVERGENCE CHECKS FOR EQUILIBRIUM ITERATION     1


 AVERAGE FORCE                       0.00       TIME AVG. FORCE       1.000E-02
 ALL FORCE     RESIDUALS ARE ZERO
 ALL DISP.    INCREMENTS ARE ZERO
 ALL CORRECTION TO DISP.    ARE ZERO
          THERE IS ZERO FORCE     EVERYWHERE

 AVERAGE HEAT FLUX                   1.42       TIME AVG. HEAT FLUX    67.0    
 LARGEST RESIDUAL HEAT FLUX         3.512E-11   AT NODE      42869   DOF 11
   INSTANCE: CHD2                                                                            
 LARGEST INCREMENT OF TEMP.         7.980E-02   AT NODE      36902   DOF 11
   INSTANCE: CHD2                                                                            
 LARGEST CORRECTION TO TEMP.       -0.189       AT NODE      36902   DOF 11
   INSTANCE: CHD2                                                                            
          THE HEAT FLUX EQUILIBRIUM RESPONSE WAS LINEAR IN THIS INCREMENT

 ITERATION SUMMARY FOR THE INCREMENT:   1 TOTAL ITERATIONS, OF WHICH
   0 ARE SEVERE DISCONTINUITY ITERATIONS AND  1 ARE EQUILIBRIUM ITERATIONS.

 TIME INCREMENT COMPLETED   720.    ,  FRACTION OF STEP COMPLETED  0.500    
 STEP TIME COMPLETED       3.600E+03,  TOTAL TIME COMPLETED        3.600E+03


  INCREMENT     6 STARTS. ATTEMPT NUMBER  1, TIME INCREMENT   720.    
 
	UNSYMMETRIC NEW DIRECT SPARSE SOLVER RUNNING ON
 	1 HOST x 1 MPI RANK PER HOST x 8 THREADS PER RANK
        NUMBER OF EQUATIONS:  221425
        NUMBER OF RHS:        1
        NUMBER OF FLOPS:      4.810e+11
        SOLVER ELAPSED TIME:  2.5s

               CONVERGENCE CHECKS FOR EQUILIBRIUM ITERATION     1


 AVERAGE FORCE                       0.00       TIME AVG. FORCE       1.000E-02
 ALL FORCE     RESIDUALS ARE ZERO
 ALL DISP.    INCREMENTS ARE ZERO
 ALL CORRECTION TO DISP.    ARE ZERO
          THERE IS ZERO FORCE     EVERYWHERE

 AVERAGE HEAT FLUX                  0.430       TIME AVG. HEAT FLUX    55.9    
 LARGEST RESIDUAL HEAT FLUX        -3.321E-11   AT NODE      44263   DOF 11
   INSTANCE: CHD2                                                                            
 LARGEST INCREMENT OF TEMP.         2.389E-02   AT NODE      36710   DOF 11
   INSTANCE: CHD2                                                                            
 LARGEST CORRECTION TO TEMP.       -5.611E-02   AT NODE      36902   DOF 11
   INSTANCE: CHD2                                                                            
          THE HEAT FLUX EQUILIBRIUM RESPONSE WAS LINEAR IN THIS INCREMENT

 ITERATION SUMMARY FOR THE INCREMENT:   1 TOTAL ITERATIONS, OF WHICH
   0 ARE SEVERE DISCONTINUITY ITERATIONS AND  1 ARE EQUILIBRIUM ITERATIONS.

 TIME INCREMENT COMPLETED   720.    ,  FRACTION OF STEP COMPLETED  0.600    
 STEP TIME COMPLETED       4.320E+03,  TOTAL TIME COMPLETED        4.320E+03


  INCREMENT     7 STARTS. ATTEMPT NUMBER  1, TIME INCREMENT   720.    
 
	UNSYMMETRIC NEW DIRECT SPARSE SOLVER RUNNING ON
 	1 HOST x 1 MPI RANK PER HOST x 8 THREADS PER RANK
        NUMBER OF EQUATIONS:  221425
        NUMBER OF RHS:        1
        NUMBER OF FLOPS:      4.810e+11
        SOLVER ELAPSED TIME:  2.5s

               CONVERGENCE CHECKS FOR EQUILIBRIUM ITERATION     1


 AVERAGE FORCE                       0.00       TIME AVG. FORCE       1.000E-02
 ALL FORCE     RESIDUALS ARE ZERO
 ALL DISP.    INCREMENTS ARE ZERO
 ALL CORRECTION TO DISP.    ARE ZERO
          THERE IS ZERO FORCE     EVERYWHERE

 AVERAGE HEAT FLUX                  0.130       TIME AVG. HEAT FLUX    47.9    
 LARGEST RESIDUAL HEAT FLUX        -3.590E-11   AT NODE      42788   DOF 11
   INSTANCE: CHD2                                                                            
 LARGEST INCREMENT OF TEMP.         7.215E-03   AT NODE      36505   DOF 11
   INSTANCE: CHD2                                                                            
 LARGEST CORRECTION TO TEMP.       -1.672E-02   AT NODE      36710   DOF 11
   INSTANCE: CHD2                                                                            
          THE HEAT FLUX EQUILIBRIUM RESPONSE WAS LINEAR IN THIS INCREMENT

 ITERATION SUMMARY FOR THE INCREMENT:   1 TOTAL ITERATIONS, OF WHICH
   0 ARE SEVERE DISCONTINUITY ITERATIONS AND  1 ARE EQUILIBRIUM ITERATIONS.

 TIME INCREMENT COMPLETED   720.    ,  FRACTION OF STEP COMPLETED  0.700    
 STEP TIME COMPLETED       5.040E+03,  TOTAL TIME COMPLETED        5.040E+03


  INCREMENT     8 STARTS. ATTEMPT NUMBER  1, TIME INCREMENT   720.    
 
	UNSYMMETRIC NEW DIRECT SPARSE SOLVER RUNNING ON
 	1 HOST x 1 MPI RANK PER HOST x 8 THREADS PER RANK
        NUMBER OF EQUATIONS:  221425
        NUMBER OF RHS:        1
        NUMBER OF FLOPS:      4.810e+11
        SOLVER ELAPSED TIME:  2.4s

               CONVERGENCE CHECKS FOR EQUILIBRIUM ITERATION     1


 AVERAGE FORCE                       0.00       TIME AVG. FORCE       1.000E-02
 ALL FORCE     RESIDUALS ARE ZERO
 ALL DISP.    INCREMENTS ARE ZERO
 ALL CORRECTION TO DISP.    ARE ZERO
          THERE IS ZERO FORCE     EVERYWHERE

 AVERAGE HEAT FLUX                  3.917E-02   TIME AVG. HEAT FLUX    41.9    
 LARGEST RESIDUAL HEAT FLUX        -3.669E-11   AT NODE      42594   DOF 11
   INSTANCE: CHD2                                                                            
 LARGEST INCREMENT OF TEMP.         2.239E-03   AT NODE      12065   DOF 11
   INSTANCE: CHD2                                                                            
 LARGEST CORRECTION TO TEMP.       -5.018E-03   AT NODE      36710   DOF 11
   INSTANCE: CHD2                                                                            
          THE HEAT FLUX EQUILIBRIUM RESPONSE WAS LINEAR IN THIS INCREMENT

 ITERATION SUMMARY FOR THE INCREMENT:   1 TOTAL ITERATIONS, OF WHICH
   0 ARE SEVERE DISCONTINUITY ITERATIONS AND  1 ARE EQUILIBRIUM ITERATIONS.

 TIME INCREMENT COMPLETED   720.    ,  FRACTION OF STEP COMPLETED  0.800    
 STEP TIME COMPLETED       5.760E+03,  TOTAL TIME COMPLETED        5.760E+03


  INCREMENT     9 STARTS. ATTEMPT NUMBER  1, TIME INCREMENT   720.    
 
	UNSYMMETRIC NEW DIRECT SPARSE SOLVER RUNNING ON
 	1 HOST x 1 MPI RANK PER HOST x 8 THREADS PER RANK
        NUMBER OF EQUATIONS:  221425
        NUMBER OF RHS:        1
        NUMBER OF FLOPS:      4.810e+11
        SOLVER ELAPSED TIME:  2.5s

               CONVERGENCE CHECKS FOR EQUILIBRIUM ITERATION     1


 AVERAGE FORCE                       0.00       TIME AVG. FORCE       1.000E-02
 ALL FORCE     RESIDUALS ARE ZERO
 ALL DISP.    INCREMENTS ARE ZERO
 ALL CORRECTION TO DISP.    ARE ZERO
          THERE IS ZERO FORCE     EVERYWHERE

 AVERAGE HEAT FLUX                  1.183E-02   TIME AVG. HEAT FLUX    37.3    
 LARGEST RESIDUAL HEAT FLUX        -3.241E-11   AT NODE      42860   DOF 11
   INSTANCE: CHD2                                                                            
 LARGEST INCREMENT OF TEMP.         6.990E-04   AT NODE       4180   DOF 11
   INSTANCE: CHD2                                                                            
 LARGEST CORRECTION TO TEMP.       -1.542E-03   AT NODE      36249   DOF 11
   INSTANCE: CHD2                                                                            
          THE HEAT FLUX EQUILIBRIUM RESPONSE WAS LINEAR IN THIS INCREMENT

 ITERATION SUMMARY FOR THE INCREMENT:   1 TOTAL ITERATIONS, OF WHICH
   0 ARE SEVERE DISCONTINUITY ITERATIONS AND  1 ARE EQUILIBRIUM ITERATIONS.

 TIME INCREMENT COMPLETED   720.    ,  FRACTION OF STEP COMPLETED  0.900    
 STEP TIME COMPLETED       6.480E+03,  TOTAL TIME COMPLETED        6.480E+03


  INCREMENT    10 STARTS. ATTEMPT NUMBER  1, TIME INCREMENT   720.    
 
	UNSYMMETRIC NEW DIRECT SPARSE SOLVER RUNNING ON
 	1 HOST x 1 MPI RANK PER HOST x 8 THREADS PER RANK
        NUMBER OF EQUATIONS:  221425
        NUMBER OF RHS:        1
        NUMBER OF FLOPS:      4.810e+11
        SOLVER ELAPSED TIME:  2.5s

               CONVERGENCE CHECKS FOR EQUILIBRIUM ITERATION     1


 AVERAGE FORCE                       0.00       TIME AVG. FORCE       1.000E-02
 ALL FORCE     RESIDUALS ARE ZERO
 ALL DISP.    INCREMENTS ARE ZERO
 ALL CORRECTION TO DISP.    ARE ZERO
          THERE IS ZERO FORCE     EVERYWHERE

 AVERAGE HEAT FLUX                  3.573E-03   TIME AVG. HEAT FLUX    33.5    
 LARGEST RESIDUAL HEAT FLUX         3.819E-11   AT NODE      44221   DOF 11
   INSTANCE: CHD2                                                                            
 LARGEST INCREMENT OF TEMP.         2.181E-04   AT NODE       4180   DOF 11
   INSTANCE: CHD2                                                                            
 LARGEST CORRECTION TO TEMP.       -4.809E-04   AT NODE       4181   DOF 11
   INSTANCE: CHD2                                                                            
          THE HEAT FLUX EQUILIBRIUM RESPONSE WAS LINEAR IN THIS INCREMENT

 ITERATION SUMMARY FOR THE INCREMENT:   1 TOTAL ITERATIONS, OF WHICH
   0 ARE SEVERE DISCONTINUITY ITERATIONS AND  1 ARE EQUILIBRIUM ITERATIONS.

 TIME INCREMENT COMPLETED   720.    ,  FRACTION OF STEP COMPLETED   1.00    
 STEP TIME COMPLETED       7.200E+03,  TOTAL TIME COMPLETED        7.200E+03
1

   Abaqus 2023.HF4                                  Date 22-Sep-2024   Time 16:37:35
   For use by AALTO UNIVERSITY under license from Dassault Systemes or its subsidiary.

                                                                                 
                                                                                 
 STEP    2     INCREMENT     1     STEP TIME    0.00    


                        S T E P       2     C O U P L E D - T E M P E R A T U R E - D I S P L A C E M E N T   A N A L Y S I S


                                                                                          

     AUTOMATIC TIME CONTROL WITH -
          A SUGGESTED INITIAL TIME INCREMENT OF                 6.65    
          AND A TOTAL TIME PERIOD OF                            665.    
          THE MINIMUM TIME INCREMENT ALLOWED IS                1.000E-07
          THE MAXIMUM TIME INCREMENT ALLOWED IS                 6.65    

          CREEP AND SWELLING EFFECTS ARE OMITTED IN THIS STEP

     THE SIZE OF THE TIME INCREMENT IS CONTROLLED BY -
          THE TEMPERATURE CHANGE PER INCREMENT NOT EXCEEDING           1.000E+03
          THE RATE DEPENDENCY WILL BE CONSIDERED IN THIS STEP

          CREEP AND SWELLING EFFECTS WILL BE IGNORED.

 CONVERGENCE TOLERANCE PARAMETERS FOR FORCE    
     CRITERION FOR RESIDUAL FORCE     FOR A NONLINEAR PROBLEM          5.000E-03
     CRITERION FOR DISP.    CORRECTION IN A NONLINEAR PROBLEM          1.000E-02
     INIT. VALUE OF TIME AVG. FORCE     IS TIME AVG. FORCE     IN PREVIOUS STEP
     AVERAGE FORCE     IS TIME AVERAGE FORCE    
     ALTERNATE CRIT. FOR RESIDUAL FORCE     FOR A NONLINEAR PROBLEM    2.000E-02
     CRITERION FOR ZERO FORCE     RELATIVE TO TIME AVRG. FORCE         1.000E-05
     CRITERION FOR RESIDUAL FORCE     WHEN THERE IS ZERO FLUX          1.000E-05
     CRITERION FOR DISP.    CORRECTION WHEN THERE IS ZERO FLUX         1.000E-03
     CRITERION FOR RESIDUAL FORCE     FOR A LINEAR INCREMENT           1.000E-08
     FIELD CONVERSION RATIO                                             1.00    
     CRITERION FOR ZERO FORCE     REL. TO TIME AVRG. MAX. FORCE        1.000E-05
     CRITERION FOR ZERO DISP.    RELATIVE TO CHARACTERISTIC LENGTH     1.000E-08

 CONVERGENCE TOLERANCE PARAMETERS FOR HEAT FLUX
     CRITERION FOR RESIDUAL HEAT FLUX FOR A NONLINEAR PROBLEM          5.000E-03
     CRITERION FOR TEMP.    CORRECTION IN A NONLINEAR PROBLEM          1.000E-02
     INIT. VALUE OF TIME AVG. HEAT FLUX IS TIME AVG. HEAT FLUX IN PREVIOUS STEP
     AVERAGE HEAT FLUX IS TIME AVERAGE HEAT FLUX
     ALTERNATE CRIT. FOR RESIDUAL HEAT FLUX FOR A NONLINEAR PROBLEM    2.000E-02
     CRITERION FOR ZERO HEAT FLUX RELATIVE TO TIME AVRG. HEAT FLUX     1.000E-05
     CRITERION FOR RESIDUAL HEAT FLUX WHEN THERE IS ZERO FLUX          1.000E-05
     CRITERION FOR TEMP.    CORRECTION WHEN THERE IS ZERO FLUX         1.000E-03
     CRITERION FOR RESIDUAL HEAT FLUX FOR A LINEAR INCREMENT           1.000E-08
     FIELD CONVERSION RATIO                                             1.00    
     CRITERION FOR ZERO HEAT FLUX REL. TO TIME AVRG. MAX. HEAT FLUX    1.000E-05

     VOLUMETRIC STRAIN COMPATIBILITY TOLERANCE FOR HYBRID SOLIDS       1.000E-05
     AXIAL STRAIN COMPATIBILITY TOLERANCE FOR HYBRID BEAMS             1.000E-05
     TRANS. SHEAR STRAIN COMPATIBILITY TOLERANCE FOR HYBRID BEAMS      1.000E-05
     SOFT CONTACT CONSTRAINT COMPATIBILITY TOLERANCE FOR P>P0          5.000E-03
     SOFT CONTACT CONSTRAINT COMPATIBILITY TOLERANCE FOR P=0.0         0.100    
     CONTACT FORCE ERROR TOLERANCE FOR CONVERT SDI=YES                 1.00    
     DISPLACEMENT COMPATIBILITY TOLERANCE FOR DCOUP ELEMENTS           1.000E-05
     ROTATION COMPATIBILITY TOLERANCE FOR DCOUP ELEMENTS               1.000E-05

 EQUILIBRIUM WILL BE CHECKED FOR SEVERE DISCONTINUITY ITERATIONS

 TIME INCREMENTATION CONTROL PARAMETERS:
     FIRST EQUILIBRIUM ITERATION FOR CONSECUTIVE DIVERGENCE CHECK              4
     EQUILIBRIUM ITERATION AT WHICH LOG. CONVERGENCE RATE CHECK BEGINS         8
     EQUILIBRIUM ITERATION AFTER WHICH ALTERNATE RESIDUAL IS USED              9
     MAXIMUM EQUILIBRIUM ITERATIONS ALLOWED                                   16
     EQUILIBRIUM ITERATION COUNT FOR CUT-BACK IN NEXT INCREMENT               10
     MAXIMUM EQUILIB. ITERS IN TWO INCREMENTS FOR TIME INCREMENT INCREASE      4
     MAXIMUM ITERATIONS FOR SEVERE DISCONTINUITIES                            50
     MAXIMUM ATTEMPTS ALLOWED IN AN INCREMENT                                  5
     MAXIMUM DISCON. ITERS IN TWO INCREMENTS FOR TIME INCREMENT INCREASE      50
     MAXIMUM CONTACT AUGMENTATIONS FOR *SURFACE BEHAVIOR,AUGMENTED LAGRANGE   50
     CONSECUTIVE INCS MEETING TIME INTEG. TOL. FOR TIME INC. INCREASE          3
     CUT-BACK FACTOR AFTER DIVERGENCE                                 0.2500    
     CUT-BACK FACTOR FOR TOO SLOW CONVERGENCE                         0.5000    
     CUT-BACK FACTOR AFTER TOO MANY EQUILIBRIUM ITERATIONS            0.7500    
     CUT-BACK FACTOR AFTER TOO MANY SEVERE DISCONTINUITY ITERATIONS   0.2500    
     CUT-BACK FACTOR AFTER PROBLEMS IN ELEMENT ASSEMBLY               0.2500    
     INCREASE FACTOR AFTER TWO INCREMENTS THAT CONVERGE QUICKLY        1.500    
     MAX. TIME INCREMENT INCREASE FACTOR ALLOWED                       1.500    
     MAX. TIME INCREMENT INCREASE FACTOR ALLOWED (DYNAMICS)            1.250    
     MAX. TIME INCREMENT INCREASE FACTOR ALLOWED (DIFFUSION)           2.000    
     MINIMUM TIME INCREMENT RATIO FOR EXTRAPOLATION TO OCCUR          0.1000    
     CUT-BACK FACTOR WHEN TIME INTEGRATION ACCURACY TOL. EXCEEDED     0.8500    
     MAX. RATIO OF TIME INTEG. MEASURE TO TOL. FOR TIME INC. INCREASE 0.7500    
     INCREASE FACTOR FOR TIME INCREMENT WHEN POSSIBLE                 0.8000    
     MIN. TIME INC. INCREASE FACTOR IN LINEAR TRANSIENT PROBLEMS      0.9500    
     MAX. RATIO OF TIME INCREMENT TO STABILITY LIMIT                   1.000    
     FRACTION OF STABILITY LIMIT FOR NEW TIME INCREMENT               0.9500    
     TIME INCREMENT INCREASE FACTOR BEFORE A TIME POINT                1.000    
     GLOBAL STABILIZATION CONTROL IS NOT USED

          PRINT OF INCREMENT NUMBER, TIME, ETC., EVERY    1  INCREMENTS

     THE MAXIMUM NUMBER OF INCREMENTS IN THIS STEP IS                 1000000

          LARGE DISPLACEMENT THEORY WILL BE USED

          UNSYMMETRIC MATRIX STORAGE AND SOLUTION WILL BE USED

     LINEAR EXTRAPOLATION WILL BE USED

     CHARACTERISTIC ELEMENT LENGTH     1.919E-04

     DETAILS REGARDING ACTUAL SOLUTION WAVEFRONT REQUESTED

     DETAILED OUTPUT OF DIAGNOSTICS TO DATABASE REQUESTED

     PRINT OF INCREMENT NUMBER, TIME, ETC., TO THE MESSAGE FILE EVERY     1  INCREMENTS

     ELEMENT OPERATIONS WILL BE CARRIED OUT IN PARALLEL USING   8 THREADS ON 1 DOMAIN

     COLLECTING STEP CONSTRAINT INFORMATION FOR OVERCONSTRAINT CHECKS


  INCREMENT     1 STARTS. ATTEMPT NUMBER  1, TIME INCREMENT   6.65    
 
     INITIAL ELEMENT LOAD BALANCE
            DOMAIN    1     THREAD    NUMBER OF ELEMENTS
                              1            9000
                              2            8832
                              3            8944
                              4            8840
                              5            8576
                              6            8994
                              7            9040
                              8            8864
 
	UNSYMMETRIC NEW DIRECT SPARSE SOLVER RUNNING ON
 	1 HOST x 1 MPI RANK PER HOST x 8 THREADS PER RANK
        NUMBER OF EQUATIONS:  221425
        NUMBER OF RHS:        1
        NUMBER OF FLOPS:      4.810e+11
        SOLVER ELAPSED TIME:  2.4s

               CONVERGENCE CHECKS FOR EQUILIBRIUM ITERATION     1


 AVERAGE FORCE                      3.243E-02   TIME AVG. FORCE       3.243E-02
 LARGEST SCALED RESIDUAL FORCE     -1.373E-11   AT NODE      44014   DOF  2
   INSTANCE: CHD2                                                                            
  CORRESPONDING RESIDUAL FORCE     -1.373E-11
 LARGEST INCREMENT OF DISP.         1.662E-05   AT NODE      42998   DOF  2
   INSTANCE: CHD2                                                                            
 LARGEST CORRECTION TO DISP.        1.662E-05   AT NODE      42998   DOF  2
   INSTANCE: CHD2                                                                            
          THE FORCE     EQUILIBRIUM RESPONSE WAS LINEAR IN THIS INCREMENT

 AVERAGE HEAT FLUX                  3.498E-03   TIME AVG. HEAT FLUX   3.498E-03
 LARGEST RESIDUAL HEAT FLUX        -3.126E-11   AT NODE      42782   DOF 11
   INSTANCE: CHD2                                                                            
 LARGEST INCREMENT OF TEMP.         1.974E-06   AT NODE       4180   DOF 11
   INSTANCE: CHD2                                                                            
 LARGEST CORRECTION TO TEMP.        1.974E-06   AT NODE       4180   DOF 11
   INSTANCE: CHD2                                                                            
          THE HEAT FLUX EQUILIBRIUM RESPONSE WAS LINEAR IN THIS INCREMENT

 MAXIMUM NON-PRESCRIBED INCREMENT IN TEMPERATURE IS   1.974E-06

 ITERATION SUMMARY FOR THE INCREMENT:   1 TOTAL ITERATIONS, OF WHICH
   0 ARE SEVERE DISCONTINUITY ITERATIONS AND  1 ARE EQUILIBRIUM ITERATIONS.

 TIME INCREMENT COMPLETED   6.65    ,  FRACTION OF STEP COMPLETED  1.000E-02
 STEP TIME COMPLETED        6.65    ,  TOTAL TIME COMPLETED        7.207E+03


  INCREMENT     2 STARTS. ATTEMPT NUMBER  1, TIME INCREMENT   6.65    
 
	UNSYMMETRIC NEW DIRECT SPARSE SOLVER RUNNING ON
 	1 HOST x 1 MPI RANK PER HOST x 8 THREADS PER RANK
        NUMBER OF EQUATIONS:  221425
        NUMBER OF RHS:        1
        NUMBER OF FLOPS:      4.810e+11
        SOLVER ELAPSED TIME:  2.4s

               CONVERGENCE CHECKS FOR EQUILIBRIUM ITERATION     1


 AVERAGE FORCE                      0.166       TIME AVG. FORCE       9.910E-02
 LARGEST SCALED RESIDUAL FORCE      5.584E-12   AT NODE      44242   DOF  2
   INSTANCE: CHD2                                                                            
  CORRESPONDING RESIDUAL FORCE      5.584E-12
 LARGEST INCREMENT OF DISP.         1.662E-05   AT NODE      42998   DOF  2
   INSTANCE: CHD2                                                                            
 LARGEST CORRECTION TO DISP.       -4.462E-18   AT NODE      43838   DOF  2
   INSTANCE: CHD2                                                                            
          THE FORCE     EQUILIBRIUM RESPONSE WAS LINEAR IN THIS INCREMENT

 AVERAGE HEAT FLUX                  3.030E-02   TIME AVG. HEAT FLUX   1.690E-02
 LARGEST RESIDUAL HEAT FLUX        -1.265E-06   AT NODE      43960   DOF 12
   INSTANCE: CHD2                                                                            
 LARGEST INCREMENT OF TEMP.        -4.313E-03   AT NODE       4638   DOF 11
   INSTANCE: CHD2                                                                            
 LARGEST CORRECTION TO TEMP.       -4.313E-03   AT NODE       4638   DOF 11
   INSTANCE: CHD2                                                                            
 ESTIMATE OF TEMP.    CORRECTION   -3.585E-10
 HEAT FLUX EQUILIB. ACCEPTED BASED ON SMALL RESIDUAL AND ESTIMATED CORRECTION

 MAXIMUM NON-PRESCRIBED INCREMENT IN TEMPERATURE IS  -4.313E-03
          TIME INCREMENT MAY NOW INCREASE TO     6.65    

 ITERATION SUMMARY FOR THE INCREMENT:   1 TOTAL ITERATIONS, OF WHICH
   0 ARE SEVERE DISCONTINUITY ITERATIONS AND  1 ARE EQUILIBRIUM ITERATIONS.

 TIME INCREMENT COMPLETED   6.65    ,  FRACTION OF STEP COMPLETED  2.000E-02
 STEP TIME COMPLETED        13.3    ,  TOTAL TIME COMPLETED        7.213E+03


  INCREMENT     3 STARTS. ATTEMPT NUMBER  1, TIME INCREMENT   6.65    
 
	UNSYMMETRIC NEW DIRECT SPARSE SOLVER RUNNING ON
 	1 HOST x 1 MPI RANK PER HOST x 8 THREADS PER RANK
        NUMBER OF EQUATIONS:  221425
        NUMBER OF RHS:        1
        NUMBER OF FLOPS:      4.810e+11
        SOLVER ELAPSED TIME:  2.5s

               CONVERGENCE CHECKS FOR EQUILIBRIUM ITERATION     1


 AVERAGE FORCE                      0.249       TIME AVG. FORCE       0.149    
 LARGEST SCALED RESIDUAL FORCE     -5.950E-12   AT NODE      44253   DOF  2
   INSTANCE: CHD2                                                                            
  CORRESPONDING RESIDUAL FORCE     -5.950E-12
 LARGEST INCREMENT OF DISP.         1.662E-05   AT NODE      42998   DOF  2
   INSTANCE: CHD2                                                                            
 LARGEST CORRECTION TO DISP.        1.211E-12   AT NODE      43600   DOF  2
   INSTANCE: CHD2                                                                            
          THE FORCE     EQUILIBRIUM RESPONSE WAS LINEAR IN THIS INCREMENT

 AVERAGE HEAT FLUX                  5.867E-02   TIME AVG. HEAT FLUX   3.082E-02
 LARGEST RESIDUAL HEAT FLUX        -4.772E-06   AT NODE      43960   DOF 12
   INSTANCE: CHD2                                                                            
 LARGEST INCREMENT OF TEMP.        -6.735E-03   AT NODE       4638   DOF 11
   INSTANCE: CHD2                                                                            
 LARGEST CORRECTION TO TEMP.       -2.422E-03   AT NODE       4638   DOF 11
   INSTANCE: CHD2                                                                            
 ESTIMATE OF TEMP.    CORRECTION   -8.003E-10
 HEAT FLUX EQUILIB. ACCEPTED BASED ON SMALL RESIDUAL AND ESTIMATED CORRECTION

 MAXIMUM NON-PRESCRIBED INCREMENT IN TEMPERATURE IS  -6.735E-03

 ITERATION SUMMARY FOR THE INCREMENT:   1 TOTAL ITERATIONS, OF WHICH
   0 ARE SEVERE DISCONTINUITY ITERATIONS AND  1 ARE EQUILIBRIUM ITERATIONS.

 TIME INCREMENT COMPLETED   6.65    ,  FRACTION OF STEP COMPLETED  3.000E-02
 STEP TIME COMPLETED        20.0    ,  TOTAL TIME COMPLETED        7.220E+03


  INCREMENT     4 STARTS. ATTEMPT NUMBER  1, TIME INCREMENT   6.65    
 
	UNSYMMETRIC NEW DIRECT SPARSE SOLVER RUNNING ON
 	1 HOST x 1 MPI RANK PER HOST x 8 THREADS PER RANK
        NUMBER OF EQUATIONS:  221425
        NUMBER OF RHS:        1
        NUMBER OF FLOPS:      4.810e+11
        SOLVER ELAPSED TIME:  2.5s

               CONVERGENCE CHECKS FOR EQUILIBRIUM ITERATION     1


 AVERAGE FORCE                      0.332       TIME AVG. FORCE       0.195    
 LARGEST SCALED RESIDUAL FORCE     -4.870E-12   AT NODE      44279   DOF  2
   INSTANCE: CHD2                                                                            
  CORRESPONDING RESIDUAL FORCE     -4.870E-12
 LARGEST INCREMENT OF DISP.         1.662E-05   AT NODE      42998   DOF  2
   INSTANCE: CHD2                                                                            
 LARGEST CORRECTION TO DISP.        4.038E-12   AT NODE      43600   DOF  2
   INSTANCE: CHD2                                                                            
          THE FORCE     EQUILIBRIUM RESPONSE WAS LINEAR IN THIS INCREMENT

 AVERAGE HEAT FLUX                  8.714E-02   TIME AVG. HEAT FLUX   4.490E-02
 LARGEST RESIDUAL HEAT FLUX        -1.018E-05   AT NODE      43960   DOF 12
   INSTANCE: CHD2                                                                            
 LARGEST INCREMENT OF TEMP.        -8.238E-03   AT NODE       4638   DOF 11
   INSTANCE: CHD2                                                                            
 LARGEST CORRECTION TO TEMP.       -1.503E-03   AT NODE       4638   DOF 11
   INSTANCE: CHD2                                                                            
 ESTIMATE OF TEMP.    CORRECTION   -1.111E-09
 HEAT FLUX EQUILIB. ACCEPTED BASED ON SMALL RESIDUAL AND ESTIMATED CORRECTION

 MAXIMUM NON-PRESCRIBED INCREMENT IN TEMPERATURE IS  -8.238E-03

 ITERATION SUMMARY FOR THE INCREMENT:   1 TOTAL ITERATIONS, OF WHICH
   0 ARE SEVERE DISCONTINUITY ITERATIONS AND  1 ARE EQUILIBRIUM ITERATIONS.

 TIME INCREMENT COMPLETED   6.65    ,  FRACTION OF STEP COMPLETED  4.000E-02
 STEP TIME COMPLETED        26.6    ,  TOTAL TIME COMPLETED        7.227E+03


  INCREMENT     5 STARTS. ATTEMPT NUMBER  1, TIME INCREMENT   6.65    
 
	UNSYMMETRIC NEW DIRECT SPARSE SOLVER RUNNING ON
 	1 HOST x 1 MPI RANK PER HOST x 8 THREADS PER RANK
        NUMBER OF EQUATIONS:  221425
        NUMBER OF RHS:        1
        NUMBER OF FLOPS:      4.810e+11
        SOLVER ELAPSED TIME:  2.4s

               CONVERGENCE CHECKS FOR EQUILIBRIUM ITERATION     1


 AVERAGE FORCE                      0.414       TIME AVG. FORCE       0.239    
 LARGEST SCALED RESIDUAL FORCE     -5.425E-12   AT NODE      44242   DOF  2
   INSTANCE: CHD2                                                                            
  CORRESPONDING RESIDUAL FORCE     -5.425E-12
 LARGEST INCREMENT OF DISP.         1.662E-05   AT NODE      42998   DOF  2
   INSTANCE: CHD2                                                                            
 LARGEST CORRECTION TO DISP.        6.470E-12   AT NODE      43600   DOF  2
   INSTANCE: CHD2                                                                            
          THE FORCE     EQUILIBRIUM RESPONSE WAS LINEAR IN THIS INCREMENT

 AVERAGE HEAT FLUX                  0.116       TIME AVG. HEAT FLUX   5.911E-02
 LARGEST RESIDUAL HEAT FLUX        -1.722E-05   AT NODE      43960   DOF 12
   INSTANCE: CHD2                                                                            
 LARGEST INCREMENT OF TEMP.        -9.250E-03   AT NODE       4638   DOF 11
   INSTANCE: CHD2                                                                            
 LARGEST CORRECTION TO TEMP.       -1.012E-03   AT NODE       4638   DOF 11
   INSTANCE: CHD2                                                                            
 ESTIMATE OF TEMP.    CORRECTION   -1.323E-09
 HEAT FLUX EQUILIB. ACCEPTED BASED ON SMALL RESIDUAL AND ESTIMATED CORRECTION

 MAXIMUM NON-PRESCRIBED INCREMENT IN TEMPERATURE IS  -9.250E-03

 ITERATION SUMMARY FOR THE INCREMENT:   1 TOTAL ITERATIONS, OF WHICH
   0 ARE SEVERE DISCONTINUITY ITERATIONS AND  1 ARE EQUILIBRIUM ITERATIONS.

 TIME INCREMENT COMPLETED   6.65    ,  FRACTION OF STEP COMPLETED  5.000E-02
 STEP TIME COMPLETED        33.2    ,  TOTAL TIME COMPLETED        7.233E+03


  INCREMENT     6 STARTS. ATTEMPT NUMBER  1, TIME INCREMENT   6.65    
 
	UNSYMMETRIC NEW DIRECT SPARSE SOLVER RUNNING ON
 	1 HOST x 1 MPI RANK PER HOST x 8 THREADS PER RANK
        NUMBER OF EQUATIONS:  221425
        NUMBER OF RHS:        1
        NUMBER OF FLOPS:      4.810e+11
        SOLVER ELAPSED TIME:  2.5s

               CONVERGENCE CHECKS FOR EQUILIBRIUM ITERATION     1


 AVERAGE FORCE                      0.497       TIME AVG. FORCE       0.282    
 LARGEST SCALED RESIDUAL FORCE      5.539E-12   AT NODE      44285   DOF  2
   INSTANCE: CHD2                                                                            
  CORRESPONDING RESIDUAL FORCE      5.539E-12
 LARGEST INCREMENT OF DISP.         1.662E-05   AT NODE      42998   DOF  2
   INSTANCE: CHD2                                                                            
 LARGEST CORRECTION TO DISP.        8.916E-12   AT NODE      43600   DOF  2
   INSTANCE: CHD2                                                                            
          THE FORCE     EQUILIBRIUM RESPONSE WAS LINEAR IN THIS INCREMENT

 AVERAGE HEAT FLUX                  0.145       TIME AVG. HEAT FLUX   7.347E-02
 LARGEST RESIDUAL HEAT FLUX        -2.572E-05   AT NODE      43960   DOF 12
   INSTANCE: CHD2                                                                            
 LARGEST INCREMENT OF TEMP.        -9.976E-03   AT NODE       4638   DOF 11
   INSTANCE: CHD2                                                                            
 LARGEST CORRECTION TO TEMP.       -7.364E-04   AT NODE       4637   DOF 11
   INSTANCE: CHD2                                                                            
 ESTIMATE OF TEMP.    CORRECTION   -1.498E-09
 HEAT FLUX EQUILIB. ACCEPTED BASED ON SMALL RESIDUAL AND ESTIMATED CORRECTION

 MAXIMUM NON-PRESCRIBED INCREMENT IN TEMPERATURE IS  -9.976E-03

 ITERATION SUMMARY FOR THE INCREMENT:   1 TOTAL ITERATIONS, OF WHICH
   0 ARE SEVERE DISCONTINUITY ITERATIONS AND  1 ARE EQUILIBRIUM ITERATIONS.

 TIME INCREMENT COMPLETED   6.65    ,  FRACTION OF STEP COMPLETED  6.000E-02
 STEP TIME COMPLETED        39.9    ,  TOTAL TIME COMPLETED        7.240E+03


  INCREMENT     7 STARTS. ATTEMPT NUMBER  1, TIME INCREMENT   6.65    
 
	UNSYMMETRIC NEW DIRECT SPARSE SOLVER RUNNING ON
 	1 HOST x 1 MPI RANK PER HOST x 8 THREADS PER RANK
        NUMBER OF EQUATIONS:  221425
        NUMBER OF RHS:        1
        NUMBER OF FLOPS:      4.810e+11
        SOLVER ELAPSED TIME:  2.5s

               CONVERGENCE CHECKS FOR EQUILIBRIUM ITERATION     1


 AVERAGE FORCE                      0.580       TIME AVG. FORCE       0.324    
 LARGEST SCALED RESIDUAL FORCE     -4.244E-12   AT NODE      44260   DOF  2
   INSTANCE: CHD2                                                                            
  CORRESPONDING RESIDUAL FORCE     -4.244E-12
 LARGEST INCREMENT OF DISP.         1.662E-05   AT NODE      42998   DOF  2
   INSTANCE: CHD2                                                                            
 LARGEST CORRECTION TO DISP.        1.138E-11   AT NODE      43600   DOF  2
   INSTANCE: CHD2                                                                            
          THE FORCE     EQUILIBRIUM RESPONSE WAS LINEAR IN THIS INCREMENT

 AVERAGE HEAT FLUX                  0.175       TIME AVG. HEAT FLUX   8.797E-02
 LARGEST RESIDUAL HEAT FLUX        -3.551E-05   AT NODE      43960   DOF 12
   INSTANCE: CHD2                                                                            
 LARGEST INCREMENT OF TEMP.        -1.052E-02   AT NODE       4638   DOF 11
   INSTANCE: CHD2                                                                            
 LARGEST CORRECTION TO TEMP.       -6.181E-04   AT NODE       4637   DOF 11
   INSTANCE: CHD2                                                                            
 ESTIMATE OF TEMP.    CORRECTION   -1.803E-09
 HEAT FLUX EQUILIB. ACCEPTED BASED ON SMALL RESIDUAL AND ESTIMATED CORRECTION

 MAXIMUM NON-PRESCRIBED INCREMENT IN TEMPERATURE IS  -1.052E-02

 ITERATION SUMMARY FOR THE INCREMENT:   1 TOTAL ITERATIONS, OF WHICH
   0 ARE SEVERE DISCONTINUITY ITERATIONS AND  1 ARE EQUILIBRIUM ITERATIONS.

 TIME INCREMENT COMPLETED   6.65    ,  FRACTION OF STEP COMPLETED  7.000E-02
 STEP TIME COMPLETED        46.5    ,  TOTAL TIME COMPLETED        7.247E+03


  INCREMENT     8 STARTS. ATTEMPT NUMBER  1, TIME INCREMENT   6.65    
 
	UNSYMMETRIC NEW DIRECT SPARSE SOLVER RUNNING ON
 	1 HOST x 1 MPI RANK PER HOST x 8 THREADS PER RANK
        NUMBER OF EQUATIONS:  221425
        NUMBER OF RHS:        1
        NUMBER OF FLOPS:      4.810e+11
        SOLVER ELAPSED TIME:  2.4s

               CONVERGENCE CHECKS FOR EQUILIBRIUM ITERATION     1


 AVERAGE FORCE                      0.663       TIME AVG. FORCE       0.367    
 LARGEST SCALED RESIDUAL FORCE     -5.645E-12   AT NODE      44285   DOF  2
   INSTANCE: CHD2                                                                            
  CORRESPONDING RESIDUAL FORCE     -5.645E-12
 LARGEST INCREMENT OF DISP.         1.662E-05   AT NODE      42998   DOF  2
   INSTANCE: CHD2                                                                            
 LARGEST CORRECTION TO DISP.        1.387E-11   AT NODE      43600   DOF  2
   INSTANCE: CHD2                                                                            
          THE FORCE     EQUILIBRIUM RESPONSE WAS LINEAR IN THIS INCREMENT

 AVERAGE HEAT FLUX                  0.205       TIME AVG. HEAT FLUX   0.103    
 LARGEST RESIDUAL HEAT FLUX        -4.647E-05   AT NODE      43960   DOF 12
   INSTANCE: CHD2                                                                            
 LARGEST INCREMENT OF TEMP.        -1.095E-02   AT NODE       4638   DOF 11
   INSTANCE: CHD2                                                                            
 LARGEST CORRECTION TO TEMP.       -5.211E-04   AT NODE       4637   DOF 11
   INSTANCE: CHD2                                                                            
 ESTIMATE OF TEMP.    CORRECTION   -2.062E-09
 HEAT FLUX EQUILIB. ACCEPTED BASED ON SMALL RESIDUAL AND ESTIMATED CORRECTION

 MAXIMUM NON-PRESCRIBED INCREMENT IN TEMPERATURE IS  -1.095E-02

 ITERATION SUMMARY FOR THE INCREMENT:   1 TOTAL ITERATIONS, OF WHICH
   0 ARE SEVERE DISCONTINUITY ITERATIONS AND  1 ARE EQUILIBRIUM ITERATIONS.

 TIME INCREMENT COMPLETED   6.65    ,  FRACTION OF STEP COMPLETED  8.000E-02
 STEP TIME COMPLETED        53.2    ,  TOTAL TIME COMPLETED        7.253E+03


  INCREMENT     9 STARTS. ATTEMPT NUMBER  1, TIME INCREMENT   6.65    
 
	UNSYMMETRIC NEW DIRECT SPARSE SOLVER RUNNING ON
 	1 HOST x 1 MPI RANK PER HOST x 8 THREADS PER RANK
        NUMBER OF EQUATIONS:  221425
        NUMBER OF RHS:        1
        NUMBER OF FLOPS:      4.810e+11
        SOLVER ELAPSED TIME:  2.4s

               CONVERGENCE CHECKS FOR EQUILIBRIUM ITERATION     1


 AVERAGE FORCE                      0.746       TIME AVG. FORCE       0.409    
 LARGEST SCALED RESIDUAL FORCE     -4.942E-12   AT NODE      44233   DOF  2
   INSTANCE: CHD2                                                                            
  CORRESPONDING RESIDUAL FORCE     -4.942E-12
 LARGEST INCREMENT OF DISP.         1.662E-05   AT NODE      42998   DOF  2
   INSTANCE: CHD2                                                                            
 LARGEST CORRECTION TO DISP.        1.640E-11   AT NODE      43600   DOF  2
   INSTANCE: CHD2                                                                            
          THE FORCE     EQUILIBRIUM RESPONSE WAS LINEAR IN THIS INCREMENT

 AVERAGE HEAT FLUX                  0.236       TIME AVG. HEAT FLUX   0.117    
 LARGEST RESIDUAL HEAT FLUX        -5.848E-05   AT NODE      43960   DOF 12
   INSTANCE: CHD2                                                                            
 LARGEST INCREMENT OF TEMP.        -1.129E-02   AT NODE       4638   DOF 11
   INSTANCE: CHD2                                                                            
 LARGEST CORRECTION TO TEMP.       -4.423E-04   AT NODE       4637   DOF 11
   INSTANCE: CHD2                                                                            
 ESTIMATE OF TEMP.    CORRECTION   -2.278E-09
 HEAT FLUX EQUILIB. ACCEPTED BASED ON SMALL RESIDUAL AND ESTIMATED CORRECTION

 MAXIMUM NON-PRESCRIBED INCREMENT IN TEMPERATURE IS  -1.129E-02

 ITERATION SUMMARY FOR THE INCREMENT:   1 TOTAL ITERATIONS, OF WHICH
   0 ARE SEVERE DISCONTINUITY ITERATIONS AND  1 ARE EQUILIBRIUM ITERATIONS.

 TIME INCREMENT COMPLETED   6.65    ,  FRACTION OF STEP COMPLETED  9.000E-02
 STEP TIME COMPLETED        59.8    ,  TOTAL TIME COMPLETED        7.260E+03


  INCREMENT    10 STARTS. ATTEMPT NUMBER  1, TIME INCREMENT   6.65    
 
	UNSYMMETRIC NEW DIRECT SPARSE SOLVER RUNNING ON
 	1 HOST x 1 MPI RANK PER HOST x 8 THREADS PER RANK
        NUMBER OF EQUATIONS:  221425
        NUMBER OF RHS:        1
        NUMBER OF FLOPS:      4.810e+11
        SOLVER ELAPSED TIME:  2.4s

               CONVERGENCE CHECKS FOR EQUILIBRIUM ITERATION     1


 AVERAGE FORCE                      0.829       TIME AVG. FORCE       0.451    
 LARGEST SCALED RESIDUAL FORCE     -4.960E-12   AT NODE      44217   DOF  2
   INSTANCE: CHD2                                                                            
  CORRESPONDING RESIDUAL FORCE     -4.960E-12
 LARGEST INCREMENT OF DISP.         1.662E-05   AT NODE      42998   DOF  2
   INSTANCE: CHD2                                                                            
 LARGEST CORRECTION TO DISP.        1.896E-11   AT NODE      43600   DOF  2
   INSTANCE: CHD2                                                                            
          THE FORCE     EQUILIBRIUM RESPONSE WAS LINEAR IN THIS INCREMENT

 AVERAGE HEAT FLUX                  0.267       TIME AVG. HEAT FLUX   0.132    
 LARGEST RESIDUAL HEAT FLUX        -7.146E-05   AT NODE      43960   DOF 12
   INSTANCE: CHD2                                                                            
 LARGEST INCREMENT OF TEMP.        -1.157E-02   AT NODE       4638   DOF 11
   INSTANCE: CHD2                                                                            
 LARGEST CORRECTION TO TEMP.       -3.779E-04   AT NODE       4637   DOF 11
   INSTANCE: CHD2                                                                            
 ESTIMATE OF TEMP.    CORRECTION   -2.456E-09
 HEAT FLUX EQUILIB. ACCEPTED BASED ON SMALL RESIDUAL AND ESTIMATED CORRECTION

 MAXIMUM NON-PRESCRIBED INCREMENT IN TEMPERATURE IS  -1.157E-02

 ITERATION SUMMARY FOR THE INCREMENT:   1 TOTAL ITERATIONS, OF WHICH
   0 ARE SEVERE DISCONTINUITY ITERATIONS AND  1 ARE EQUILIBRIUM ITERATIONS.

 TIME INCREMENT COMPLETED   6.65    ,  FRACTION OF STEP COMPLETED  0.100    
 STEP TIME COMPLETED        66.5    ,  TOTAL TIME COMPLETED        7.266E+03


  INCREMENT    11 STARTS. ATTEMPT NUMBER  1, TIME INCREMENT   6.65    
 
	UNSYMMETRIC NEW DIRECT SPARSE SOLVER RUNNING ON
 	1 HOST x 1 MPI RANK PER HOST x 8 THREADS PER RANK
        NUMBER OF EQUATIONS:  221425
        NUMBER OF RHS:        1
        NUMBER OF FLOPS:      4.810e+11
        SOLVER ELAPSED TIME:  2.4s

               CONVERGENCE CHECKS FOR EQUILIBRIUM ITERATION     1


 AVERAGE FORCE                      0.912       TIME AVG. FORCE       0.493    
 LARGEST SCALED RESIDUAL FORCE      5.265E-12   AT NODE      44230   DOF  2
   INSTANCE: CHD2                                                                            
  CORRESPONDING RESIDUAL FORCE      5.265E-12
 LARGEST INCREMENT OF DISP.         1.662E-05   AT NODE      42998   DOF  2
   INSTANCE: CHD2                                                                            
 LARGEST CORRECTION TO DISP.        2.156E-11   AT NODE      43600   DOF  2
   INSTANCE: CHD2                                                                            
          THE FORCE     EQUILIBRIUM RESPONSE WAS LINEAR IN THIS INCREMENT

 AVERAGE HEAT FLUX                  0.298       TIME AVG. HEAT FLUX   0.147    
 LARGEST RESIDUAL HEAT FLUX        -8.529E-05   AT NODE      43960   DOF 12
   INSTANCE: CHD2                                                                            
 LARGEST INCREMENT OF TEMP.        -1.180E-02   AT NODE       4638   DOF 11
   INSTANCE: CHD2                                                                            
 LARGEST CORRECTION TO TEMP.       -3.248E-04   AT NODE       4637   DOF 11
   INSTANCE: CHD2                                                                            
 ESTIMATE OF TEMP.    CORRECTION   -2.600E-09
 HEAT FLUX EQUILIB. ACCEPTED BASED ON SMALL RESIDUAL AND ESTIMATED CORRECTION

 MAXIMUM NON-PRESCRIBED INCREMENT IN TEMPERATURE IS  -1.180E-02

 ITERATION SUMMARY FOR THE INCREMENT:   1 TOTAL ITERATIONS, OF WHICH
   0 ARE SEVERE DISCONTINUITY ITERATIONS AND  1 ARE EQUILIBRIUM ITERATIONS.

 TIME INCREMENT COMPLETED   6.65    ,  FRACTION OF STEP COMPLETED  0.110    
 STEP TIME COMPLETED        73.2    ,  TOTAL TIME COMPLETED        7.273E+03


  INCREMENT    12 STARTS. ATTEMPT NUMBER  1, TIME INCREMENT   6.65    
 
	UNSYMMETRIC NEW DIRECT SPARSE SOLVER RUNNING ON
 	1 HOST x 1 MPI RANK PER HOST x 8 THREADS PER RANK
        NUMBER OF EQUATIONS:  221425
        NUMBER OF RHS:        1
        NUMBER OF FLOPS:      4.810e+11
        SOLVER ELAPSED TIME:  2.4s

               CONVERGENCE CHECKS FOR EQUILIBRIUM ITERATION     1


 AVERAGE FORCE                      0.994       TIME AVG. FORCE       0.535    
 LARGEST SCALED RESIDUAL FORCE      5.091E-12   AT NODE      44243   DOF  2
   INSTANCE: CHD2                                                                            
  CORRESPONDING RESIDUAL FORCE      5.091E-12
 LARGEST INCREMENT OF DISP.         1.662E-05   AT NODE      42998   DOF  2
   INSTANCE: CHD2                                                                            
 LARGEST CORRECTION TO DISP.        2.422E-11   AT NODE      43600   DOF  2
   INSTANCE: CHD2                                                                            
          THE FORCE     EQUILIBRIUM RESPONSE WAS LINEAR IN THIS INCREMENT

 AVERAGE HEAT FLUX                  0.331       TIME AVG. HEAT FLUX   0.163    
 LARGEST RESIDUAL HEAT FLUX        -9.991E-05   AT NODE      43960   DOF 12
   INSTANCE: CHD2                                                                            
 LARGEST INCREMENT OF TEMP.        -1.199E-02   AT NODE       4638   DOF 11
   INSTANCE: CHD2                                                                            
 LARGEST CORRECTION TO TEMP.       -2.820E-04   AT NODE        592   DOF 11
   INSTANCE: CHD2                                                                            
 ESTIMATE OF TEMP.    CORRECTION   -2.724E-09
 HEAT FLUX EQUILIB. ACCEPTED BASED ON SMALL RESIDUAL AND ESTIMATED CORRECTION

 MAXIMUM NON-PRESCRIBED INCREMENT IN TEMPERATURE IS  -1.199E-02

 ITERATION SUMMARY FOR THE INCREMENT:   1 TOTAL ITERATIONS, OF WHICH
   0 ARE SEVERE DISCONTINUITY ITERATIONS AND  1 ARE EQUILIBRIUM ITERATIONS.

 TIME INCREMENT COMPLETED   6.65    ,  FRACTION OF STEP COMPLETED  0.120    
 STEP TIME COMPLETED        79.8    ,  TOTAL TIME COMPLETED        7.280E+03


  INCREMENT    13 STARTS. ATTEMPT NUMBER  1, TIME INCREMENT   6.65    
 
	UNSYMMETRIC NEW DIRECT SPARSE SOLVER RUNNING ON
 	1 HOST x 1 MPI RANK PER HOST x 8 THREADS PER RANK
        NUMBER OF EQUATIONS:  221425
        NUMBER OF RHS:        1
        NUMBER OF FLOPS:      4.810e+11
        SOLVER ELAPSED TIME:  2.4s

               CONVERGENCE CHECKS FOR EQUILIBRIUM ITERATION     1


 AVERAGE FORCE                       1.08       TIME AVG. FORCE       0.576    
 LARGEST SCALED RESIDUAL FORCE      4.917E-12   AT NODE      44269   DOF  2
   INSTANCE: CHD2                                                                            
  CORRESPONDING RESIDUAL FORCE      4.917E-12
 LARGEST INCREMENT OF DISP.         1.662E-05   AT NODE      42998   DOF  2
   INSTANCE: CHD2                                                                            
 LARGEST CORRECTION TO DISP.        2.693E-11   AT NODE      43600   DOF  2
   INSTANCE: CHD2                                                                            
          THE FORCE     EQUILIBRIUM RESPONSE WAS LINEAR IN THIS INCREMENT

 AVERAGE HEAT FLUX                  0.363       TIME AVG. HEAT FLUX   0.178    
 LARGEST RESIDUAL HEAT FLUX        -1.152E-04   AT NODE      43960   DOF 12
   INSTANCE: CHD2                                                                            
 LARGEST INCREMENT OF TEMP.        -1.216E-02   AT NODE       4638   DOF 11
   INSTANCE: CHD2                                                                            
 LARGEST CORRECTION TO TEMP.       -2.471E-04   AT NODE        592   DOF 11
   INSTANCE: CHD2                                                                            
 ESTIMATE OF TEMP.    CORRECTION   -2.833E-09
 HEAT FLUX EQUILIB. ACCEPTED BASED ON SMALL RESIDUAL AND ESTIMATED CORRECTION

 MAXIMUM NON-PRESCRIBED INCREMENT IN TEMPERATURE IS  -1.216E-02

 ITERATION SUMMARY FOR THE INCREMENT:   1 TOTAL ITERATIONS, OF WHICH
   0 ARE SEVERE DISCONTINUITY ITERATIONS AND  1 ARE EQUILIBRIUM ITERATIONS.

 TIME INCREMENT COMPLETED   6.65    ,  FRACTION OF STEP COMPLETED  0.130    
 STEP TIME COMPLETED        86.5    ,  TOTAL TIME COMPLETED        7.286E+03


  INCREMENT    14 STARTS. ATTEMPT NUMBER  1, TIME INCREMENT   6.65    
 
	UNSYMMETRIC NEW DIRECT SPARSE SOLVER RUNNING ON
 	1 HOST x 1 MPI RANK PER HOST x 8 THREADS PER RANK
        NUMBER OF EQUATIONS:  221425
        NUMBER OF RHS:        1
        NUMBER OF FLOPS:      4.810e+11
        SOLVER ELAPSED TIME:  2.5s

               CONVERGENCE CHECKS FOR EQUILIBRIUM ITERATION     1


 AVERAGE FORCE                       1.16       TIME AVG. FORCE       0.618    
 LARGEST SCALED RESIDUAL FORCE      4.807E-12   AT NODE      44244   DOF  2
   INSTANCE: CHD2                                                                            
  CORRESPONDING RESIDUAL FORCE      4.807E-12
 LARGEST INCREMENT OF DISP.         1.662E-05   AT NODE      42998   DOF  2
   INSTANCE: CHD2                                                                            
 LARGEST CORRECTION TO DISP.        2.970E-11   AT NODE      43600   DOF  2
   INSTANCE: CHD2                                                                            
          THE FORCE     EQUILIBRIUM RESPONSE WAS LINEAR IN THIS INCREMENT

 AVERAGE HEAT FLUX                  0.396       TIME AVG. HEAT FLUX   0.194    
 LARGEST RESIDUAL HEAT FLUX        -1.311E-04   AT NODE      43960   DOF 12
   INSTANCE: CHD2                                                                            
 LARGEST INCREMENT OF TEMP.        -1.229E-02   AT NODE       4638   DOF 11
   INSTANCE: CHD2                                                                            
 LARGEST CORRECTION TO TEMP.       -2.171E-04   AT NODE        592   DOF 11
   INSTANCE: CHD2                                                                            
 ESTIMATE OF TEMP.    CORRECTION   -2.915E-09
 HEAT FLUX EQUILIB. ACCEPTED BASED ON SMALL RESIDUAL AND ESTIMATED CORRECTION

 MAXIMUM NON-PRESCRIBED INCREMENT IN TEMPERATURE IS  -1.229E-02

 ITERATION SUMMARY FOR THE INCREMENT:   1 TOTAL ITERATIONS, OF WHICH
   0 ARE SEVERE DISCONTINUITY ITERATIONS AND  1 ARE EQUILIBRIUM ITERATIONS.

 TIME INCREMENT COMPLETED   6.65    ,  FRACTION OF STEP COMPLETED  0.140    
 STEP TIME COMPLETED        93.1    ,  TOTAL TIME COMPLETED        7.293E+03


  INCREMENT    15 STARTS. ATTEMPT NUMBER  1, TIME INCREMENT   6.65    
 
	UNSYMMETRIC NEW DIRECT SPARSE SOLVER RUNNING ON
 	1 HOST x 1 MPI RANK PER HOST x 8 THREADS PER RANK
        NUMBER OF EQUATIONS:  221425
        NUMBER OF RHS:        1
        NUMBER OF FLOPS:      4.810e+11
        SOLVER ELAPSED TIME:  2.4s

               CONVERGENCE CHECKS FOR EQUILIBRIUM ITERATION     1


 AVERAGE FORCE                       1.24       TIME AVG. FORCE       0.660    
 LARGEST SCALED RESIDUAL FORCE      5.315E-12   AT NODE      44210   DOF  2
   INSTANCE: CHD2                                                                            
  CORRESPONDING RESIDUAL FORCE      5.315E-12
 LARGEST INCREMENT OF DISP.         1.662E-05   AT NODE      42998   DOF  2
   INSTANCE: CHD2                                                                            
 LARGEST CORRECTION TO DISP.        3.254E-11   AT NODE      43600   DOF  2
   INSTANCE: CHD2                                                                            
          THE FORCE     EQUILIBRIUM RESPONSE WAS LINEAR IN THIS INCREMENT

 AVERAGE HEAT FLUX                  0.430       TIME AVG. HEAT FLUX   0.209    
 LARGEST RESIDUAL HEAT FLUX        -1.476E-04   AT NODE      43960   DOF 12
   INSTANCE: CHD2                                                                            
 LARGEST INCREMENT OF TEMP.        -1.241E-02   AT NODE       4638   DOF 11
   INSTANCE: CHD2                                                                            
 LARGEST CORRECTION TO TEMP.       -1.912E-04   AT NODE        592   DOF 11
   INSTANCE: CHD2                                                                            
 ESTIMATE OF TEMP.    CORRECTION   -2.971E-09
 HEAT FLUX EQUILIB. ACCEPTED BASED ON SMALL RESIDUAL AND ESTIMATED CORRECTION

 MAXIMUM NON-PRESCRIBED INCREMENT IN TEMPERATURE IS  -1.241E-02

 ITERATION SUMMARY FOR THE INCREMENT:   1 TOTAL ITERATIONS, OF WHICH
   0 ARE SEVERE DISCONTINUITY ITERATIONS AND  1 ARE EQUILIBRIUM ITERATIONS.

 TIME INCREMENT COMPLETED   6.65    ,  FRACTION OF STEP COMPLETED  0.150    
 STEP TIME COMPLETED        99.8    ,  TOTAL TIME COMPLETED        7.300E+03


  INCREMENT    16 STARTS. ATTEMPT NUMBER  1, TIME INCREMENT   6.65    
 
	UNSYMMETRIC NEW DIRECT SPARSE SOLVER RUNNING ON
 	1 HOST x 1 MPI RANK PER HOST x 8 THREADS PER RANK
        NUMBER OF EQUATIONS:  221425
        NUMBER OF RHS:        1
        NUMBER OF FLOPS:      4.810e+11
        SOLVER ELAPSED TIME:  2.4s

               CONVERGENCE CHECKS FOR EQUILIBRIUM ITERATION     1


 AVERAGE FORCE                       1.33       TIME AVG. FORCE       0.701    
 LARGEST SCALED RESIDUAL FORCE     -4.906E-12   AT NODE      44268   DOF  2
   INSTANCE: CHD2                                                                            
  CORRESPONDING RESIDUAL FORCE     -4.906E-12
 LARGEST INCREMENT OF DISP.         1.662E-05   AT NODE      42998   DOF  2
   INSTANCE: CHD2                                                                            
 LARGEST CORRECTION TO DISP.        3.546E-11   AT NODE      43600   DOF  2
   INSTANCE: CHD2                                                                            
          THE FORCE     EQUILIBRIUM RESPONSE WAS LINEAR IN THIS INCREMENT

 AVERAGE HEAT FLUX                  0.464       TIME AVG. HEAT FLUX   0.225    
 LARGEST RESIDUAL HEAT FLUX        -1.645E-04   AT NODE      43960   DOF 12
   INSTANCE: CHD2                                                                            
 LARGEST INCREMENT OF TEMP.        -1.252E-02   AT NODE       4638   DOF 11
   INSTANCE: CHD2                                                                            
 LARGEST CORRECTION TO TEMP.       -1.691E-04   AT NODE       4636   DOF 11
   INSTANCE: CHD2                                                                            
 ESTIMATE OF TEMP.    CORRECTION   -3.011E-09
 HEAT FLUX EQUILIB. ACCEPTED BASED ON SMALL RESIDUAL AND ESTIMATED CORRECTION

 MAXIMUM NON-PRESCRIBED INCREMENT IN TEMPERATURE IS  -1.252E-02

 ITERATION SUMMARY FOR THE INCREMENT:   1 TOTAL ITERATIONS, OF WHICH
   0 ARE SEVERE DISCONTINUITY ITERATIONS AND  1 ARE EQUILIBRIUM ITERATIONS.

 TIME INCREMENT COMPLETED   6.65    ,  FRACTION OF STEP COMPLETED  0.160    
 STEP TIME COMPLETED        106.    ,  TOTAL TIME COMPLETED        7.306E+03


  INCREMENT    17 STARTS. ATTEMPT NUMBER  1, TIME INCREMENT   6.65    
 
	UNSYMMETRIC NEW DIRECT SPARSE SOLVER RUNNING ON
 	1 HOST x 1 MPI RANK PER HOST x 8 THREADS PER RANK
        NUMBER OF EQUATIONS:  221425
        NUMBER OF RHS:        1
        NUMBER OF FLOPS:      4.810e+11
        SOLVER ELAPSED TIME:  2.4s

               CONVERGENCE CHECKS FOR EQUILIBRIUM ITERATION     1


 AVERAGE FORCE                       1.41       TIME AVG. FORCE       0.743    
 LARGEST SCALED RESIDUAL FORCE     -5.169E-12   AT NODE      44219   DOF  2
   INSTANCE: CHD2                                                                            
  CORRESPONDING RESIDUAL FORCE     -5.169E-12
 LARGEST INCREMENT OF DISP.         1.662E-05   AT NODE      42998   DOF  2
   INSTANCE: CHD2                                                                            
 LARGEST CORRECTION TO DISP.        3.846E-11   AT NODE      43600   DOF  2
   INSTANCE: CHD2                                                                            
          THE FORCE     EQUILIBRIUM RESPONSE WAS LINEAR IN THIS INCREMENT

 AVERAGE HEAT FLUX                  0.498       TIME AVG. HEAT FLUX   0.241    
 LARGEST RESIDUAL HEAT FLUX        -1.819E-04   AT NODE      43960   DOF 12
   INSTANCE: CHD2                                                                            
 LARGEST INCREMENT OF TEMP.        -1.261E-02   AT NODE       4638   DOF 11
   INSTANCE: CHD2                                                                            
 LARGEST CORRECTION TO TEMP.       -1.529E-04   AT NODE      10993   DOF 11
   INSTANCE: CHD2                                                                            
 ESTIMATE OF TEMP.    CORRECTION   -3.091E-09
 HEAT FLUX EQUILIB. ACCEPTED BASED ON SMALL RESIDUAL AND ESTIMATED CORRECTION

 MAXIMUM NON-PRESCRIBED INCREMENT IN TEMPERATURE IS  -1.261E-02

 ITERATION SUMMARY FOR THE INCREMENT:   1 TOTAL ITERATIONS, OF WHICH
   0 ARE SEVERE DISCONTINUITY ITERATIONS AND  1 ARE EQUILIBRIUM ITERATIONS.

 TIME INCREMENT COMPLETED   6.65    ,  FRACTION OF STEP COMPLETED  0.170    
 STEP TIME COMPLETED        113.    ,  TOTAL TIME COMPLETED        7.313E+03


  INCREMENT    18 STARTS. ATTEMPT NUMBER  1, TIME INCREMENT   6.65    
 
	UNSYMMETRIC NEW DIRECT SPARSE SOLVER RUNNING ON
 	1 HOST x 1 MPI RANK PER HOST x 8 THREADS PER RANK
        NUMBER OF EQUATIONS:  221425
        NUMBER OF RHS:        1
        NUMBER OF FLOPS:      4.810e+11
        SOLVER ELAPSED TIME:  2.4s

               CONVERGENCE CHECKS FOR EQUILIBRIUM ITERATION     1


 AVERAGE FORCE                       1.49       TIME AVG. FORCE       0.784    
 LARGEST SCALED RESIDUAL FORCE     -7.844E-12   AT NODE      44229   DOF  2
   INSTANCE: CHD2                                                                            
  CORRESPONDING RESIDUAL FORCE     -7.844E-12
 LARGEST INCREMENT OF DISP.         1.662E-05   AT NODE      42998   DOF  2
   INSTANCE: CHD2                                                                            
 LARGEST CORRECTION TO DISP.        4.156E-11   AT NODE      43600   DOF  2
   INSTANCE: CHD2                                                                            
          THE FORCE     EQUILIBRIUM RESPONSE WAS LINEAR IN THIS INCREMENT

 AVERAGE HEAT FLUX                  0.533       TIME AVG. HEAT FLUX   0.258    
 LARGEST RESIDUAL HEAT FLUX        -1.995E-04   AT NODE      43960   DOF 12
   INSTANCE: CHD2                                                                            
 LARGEST INCREMENT OF TEMP.        -1.268E-02   AT NODE       4638   DOF 11
   INSTANCE: CHD2                                                                            
 LARGEST CORRECTION TO TEMP.       -1.388E-04   AT NODE        557   DOF 11
   INSTANCE: CHD2                                                                            
 ESTIMATE OF TEMP.    CORRECTION   -3.161E-09
 HEAT FLUX EQUILIB. ACCEPTED BASED ON SMALL RESIDUAL AND ESTIMATED CORRECTION

 MAXIMUM NON-PRESCRIBED INCREMENT IN TEMPERATURE IS  -1.268E-02

 ITERATION SUMMARY FOR THE INCREMENT:   1 TOTAL ITERATIONS, OF WHICH
   0 ARE SEVERE DISCONTINUITY ITERATIONS AND  1 ARE EQUILIBRIUM ITERATIONS.

 TIME INCREMENT COMPLETED   6.65    ,  FRACTION OF STEP COMPLETED  0.180    
 STEP TIME COMPLETED        120.    ,  TOTAL TIME COMPLETED        7.320E+03


  INCREMENT    19 STARTS. ATTEMPT NUMBER  1, TIME INCREMENT   6.65    
 
	UNSYMMETRIC NEW DIRECT SPARSE SOLVER RUNNING ON
 	1 HOST x 1 MPI RANK PER HOST x 8 THREADS PER RANK
        NUMBER OF EQUATIONS:  221425
        NUMBER OF RHS:        1
        NUMBER OF FLOPS:      4.810e+11
        SOLVER ELAPSED TIME:  2.4s

               CONVERGENCE CHECKS FOR EQUILIBRIUM ITERATION     1


 AVERAGE FORCE                       1.57       TIME AVG. FORCE       0.826    
 LARGEST SCALED RESIDUAL FORCE     -7.227E-06   AT NODE        349   DOF  1
   INSTANCE: CHD2                                                                            
  CORRESPONDING RESIDUAL FORCE     -7.227E-06
 LARGEST INCREMENT OF DISP.         1.662E-05   AT NODE      42998   DOF  2
   INSTANCE: CHD2                                                                            
 LARGEST CORRECTION TO DISP.        1.131E-09   AT NODE        908   DOF  2
   INSTANCE: CHD2                                                                            
          THE FORCE     EQUILIBRIUM EQUATIONS HAVE CONVERGED

 AVERAGE HEAT FLUX                  0.568       TIME AVG. HEAT FLUX   0.274    
 LARGEST RESIDUAL HEAT FLUX        -2.175E-04   AT NODE      43960   DOF 12
   INSTANCE: CHD2                                                                            
 LARGEST INCREMENT OF TEMP.        -1.275E-02   AT NODE       4638   DOF 11
   INSTANCE: CHD2                                                                            
 LARGEST CORRECTION TO TEMP.       -1.260E-04   AT NODE        557   DOF 11
   INSTANCE: CHD2                                                                            
          THE HEAT FLUX EQUILIBRIUM EQUATIONS HAVE CONVERGED

 MAXIMUM NON-PRESCRIBED INCREMENT IN TEMPERATURE IS  -1.275E-02

 ITERATION SUMMARY FOR THE INCREMENT:   1 TOTAL ITERATIONS, OF WHICH
   0 ARE SEVERE DISCONTINUITY ITERATIONS AND  1 ARE EQUILIBRIUM ITERATIONS.

 TIME INCREMENT COMPLETED   6.65    ,  FRACTION OF STEP COMPLETED  0.190    
 STEP TIME COMPLETED        126.    ,  TOTAL TIME COMPLETED        7.326E+03


  INCREMENT    20 STARTS. ATTEMPT NUMBER  1, TIME INCREMENT   6.65    
 
	UNSYMMETRIC NEW DIRECT SPARSE SOLVER RUNNING ON
 	1 HOST x 1 MPI RANK PER HOST x 8 THREADS PER RANK
        NUMBER OF EQUATIONS:  221425
        NUMBER OF RHS:        1
        NUMBER OF FLOPS:      4.810e+11
        SOLVER ELAPSED TIME:  2.4s

               CONVERGENCE CHECKS FOR EQUILIBRIUM ITERATION     1


 AVERAGE FORCE                       1.66       TIME AVG. FORCE       0.868    
 LARGEST SCALED RESIDUAL FORCE      3.991E-04   AT NODE        356   DOF  1
   INSTANCE: CHD2                                                                            
  CORRESPONDING RESIDUAL FORCE      3.991E-04
 LARGEST INCREMENT OF DISP.         1.662E-05   AT NODE      42998   DOF  2
   INSTANCE: CHD2                                                                            
 LARGEST CORRECTION TO DISP.       -1.283E-08   AT NODE          2   DOF  3
   INSTANCE: CHD2                                                                            
          THE FORCE     EQUILIBRIUM EQUATIONS HAVE CONVERGED

 AVERAGE HEAT FLUX                  0.604       TIME AVG. HEAT FLUX   0.290    
 LARGEST RESIDUAL HEAT FLUX        -2.356E-04   AT NODE      43960   DOF 12
   INSTANCE: CHD2                                                                            
 LARGEST INCREMENT OF TEMP.        -1.285E-02   AT NODE       4638   DOF 11
   INSTANCE: CHD2                                                                            
 LARGEST CORRECTION TO TEMP.        1.126E-03   AT NODE        558   DOF 11
   INSTANCE: CHD2                                                                            
 ESTIMATE OF TEMP.    CORRECTION    3.190E-08
 HEAT FLUX EQUILIB. ACCEPTED BASED ON SMALL RESIDUAL AND ESTIMATED CORRECTION

 MAXIMUM NON-PRESCRIBED INCREMENT IN TEMPERATURE IS  -1.285E-02

 ITERATION SUMMARY FOR THE INCREMENT:   1 TOTAL ITERATIONS, OF WHICH
   0 ARE SEVERE DISCONTINUITY ITERATIONS AND  1 ARE EQUILIBRIUM ITERATIONS.

 TIME INCREMENT COMPLETED   6.65    ,  FRACTION OF STEP COMPLETED  0.200    
 STEP TIME COMPLETED        133.    ,  TOTAL TIME COMPLETED        7.333E+03


  INCREMENT    21 STARTS. ATTEMPT NUMBER  1, TIME INCREMENT   6.65    
 
	UNSYMMETRIC NEW DIRECT SPARSE SOLVER RUNNING ON
 	1 HOST x 1 MPI RANK PER HOST x 8 THREADS PER RANK
        NUMBER OF EQUATIONS:  221425
        NUMBER OF RHS:        1
        NUMBER OF FLOPS:      4.810e+11
        SOLVER ELAPSED TIME:  2.4s

               CONVERGENCE CHECKS FOR EQUILIBRIUM ITERATION     1


 AVERAGE FORCE                       1.74       TIME AVG. FORCE       0.909    
 LARGEST SCALED RESIDUAL FORCE      2.175E-03   AT NODE      30870   DOF  2
   INSTANCE: CHD2                                                                            
  CORRESPONDING RESIDUAL FORCE      2.175E-03
 LARGEST INCREMENT OF DISP.         1.662E-05   AT NODE      42998   DOF  2
   INSTANCE: CHD2                                                                            
 LARGEST CORRECTION TO DISP.       -1.142E-08   AT NODE        870   DOF  3
   INSTANCE: CHD2                                                                            
          THE FORCE     EQUILIBRIUM EQUATIONS HAVE CONVERGED

 AVERAGE HEAT FLUX                  0.639       TIME AVG. HEAT FLUX   0.307    
 LARGEST RESIDUAL HEAT FLUX         4.864E-04   AT NODE       7709   DOF 12
   INSTANCE: CHD2                                                                            
 LARGEST INCREMENT OF TEMP.        -1.559E-02   AT NODE       4638   DOF 11
   INSTANCE: CHD2                                                                            
 LARGEST CORRECTION TO TEMP.        7.737E-03   AT NODE       7242   DOF 11
   INSTANCE: CHD2                                                                            
 ESTIMATE OF TEMP.    CORRECTION   -4.646E-07
 HEAT FLUX EQUILIB. ACCEPTED BASED ON SMALL RESIDUAL AND ESTIMATED CORRECTION

 MAXIMUM NON-PRESCRIBED INCREMENT IN TEMPERATURE IS  -1.559E-02

 ITERATION SUMMARY FOR THE INCREMENT:   1 TOTAL ITERATIONS, OF WHICH
   0 ARE SEVERE DISCONTINUITY ITERATIONS AND  1 ARE EQUILIBRIUM ITERATIONS.

 TIME INCREMENT COMPLETED   6.65    ,  FRACTION OF STEP COMPLETED  0.210    
 STEP TIME COMPLETED        140.    ,  TOTAL TIME COMPLETED        7.340E+03


  INCREMENT    22 STARTS. ATTEMPT NUMBER  1, TIME INCREMENT   6.65    
 
	UNSYMMETRIC NEW DIRECT SPARSE SOLVER RUNNING ON
 	1 HOST x 1 MPI RANK PER HOST x 8 THREADS PER RANK
        NUMBER OF EQUATIONS:  221425
        NUMBER OF RHS:        1
        NUMBER OF FLOPS:      4.810e+11
        SOLVER ELAPSED TIME:  2.6s

               CONVERGENCE CHECKS FOR EQUILIBRIUM ITERATION     1


 AVERAGE FORCE                       1.82       TIME AVG. FORCE       0.951    
 LARGEST SCALED RESIDUAL FORCE      3.024E-03   AT NODE      13324   DOF  2
   INSTANCE: CHD2                                                                            
  CORRESPONDING RESIDUAL FORCE      3.024E-03
 LARGEST INCREMENT OF DISP.         1.662E-05   AT NODE      42998   DOF  2
   INSTANCE: CHD2                                                                            
 LARGEST CORRECTION TO DISP.        1.109E-08   AT NODE      13261   DOF  2
   INSTANCE: CHD2                                                                            
          THE FORCE     EQUILIBRIUM EQUATIONS HAVE CONVERGED

 AVERAGE HEAT FLUX                  0.674       TIME AVG. HEAT FLUX   0.324    
 LARGEST RESIDUAL HEAT FLUX         1.026E-03   AT NODE       7298   DOF 12
   INSTANCE: CHD2                                                                            
 LARGEST INCREMENT OF TEMP.        -1.828E-02   AT NODE      11124   DOF 11
   INSTANCE: CHD2                                                                            
 LARGEST CORRECTION TO TEMP.        1.174E-02   AT NODE        559   DOF 11
   INSTANCE: CHD2                                                                            
 ESTIMATE OF TEMP.    CORRECTION   -1.527E-06
 HEAT FLUX EQUILIB. ACCEPTED BASED ON SMALL RESIDUAL AND ESTIMATED CORRECTION

 MAXIMUM NON-PRESCRIBED INCREMENT IN TEMPERATURE IS  -1.828E-02

 ITERATION SUMMARY FOR THE INCREMENT:   1 TOTAL ITERATIONS, OF WHICH
   0 ARE SEVERE DISCONTINUITY ITERATIONS AND  1 ARE EQUILIBRIUM ITERATIONS.

 TIME INCREMENT COMPLETED   6.65    ,  FRACTION OF STEP COMPLETED  0.220    
 STEP TIME COMPLETED        146.    ,  TOTAL TIME COMPLETED        7.346E+03


  INCREMENT    23 STARTS. ATTEMPT NUMBER  1, TIME INCREMENT   6.65    
 
	UNSYMMETRIC NEW DIRECT SPARSE SOLVER RUNNING ON
 	1 HOST x 1 MPI RANK PER HOST x 8 THREADS PER RANK
        NUMBER OF EQUATIONS:  221425
        NUMBER OF RHS:        1
        NUMBER OF FLOPS:      4.810e+11
        SOLVER ELAPSED TIME:  2.4s

               CONVERGENCE CHECKS FOR EQUILIBRIUM ITERATION     1


 AVERAGE FORCE                       1.90       TIME AVG. FORCE       0.992    
 LARGEST SCALED RESIDUAL FORCE     -1.608E-03   AT NODE      15029   DOF  2
   INSTANCE: CHD2                                                                            
  CORRESPONDING RESIDUAL FORCE     -1.608E-03
 LARGEST INCREMENT OF DISP.         1.662E-05   AT NODE      42998   DOF  2
   INSTANCE: CHD2                                                                            
 LARGEST CORRECTION TO DISP.        1.003E-08   AT NODE        905   DOF  2
   INSTANCE: CHD2                                                                            
          THE FORCE     EQUILIBRIUM EQUATIONS HAVE CONVERGED

 AVERAGE HEAT FLUX                  0.708       TIME AVG. HEAT FLUX   0.340    
 LARGEST RESIDUAL HEAT FLUX         1.223E-03   AT NODE      33601   DOF 12
   INSTANCE: CHD2                                                                            
 LARGEST INCREMENT OF TEMP.         2.367E-02   AT NODE        558   DOF 11
   INSTANCE: CHD2                                                                            
 LARGEST CORRECTION TO TEMP.        1.379E-02   AT NODE       7128   DOF 11
   INSTANCE: CHD2                                                                            
 ESTIMATE OF TEMP.    CORRECTION   -2.192E-06
 HEAT FLUX EQUILIB. ACCEPTED BASED ON SMALL RESIDUAL AND ESTIMATED CORRECTION

 MAXIMUM NON-PRESCRIBED INCREMENT IN TEMPERATURE IS   2.367E-02

 ITERATION SUMMARY FOR THE INCREMENT:   1 TOTAL ITERATIONS, OF WHICH
   0 ARE SEVERE DISCONTINUITY ITERATIONS AND  1 ARE EQUILIBRIUM ITERATIONS.

 TIME INCREMENT COMPLETED   6.65    ,  FRACTION OF STEP COMPLETED  0.230    
 STEP TIME COMPLETED        153.    ,  TOTAL TIME COMPLETED        7.353E+03


  INCREMENT    24 STARTS. ATTEMPT NUMBER  1, TIME INCREMENT   6.65    
 
	UNSYMMETRIC NEW DIRECT SPARSE SOLVER RUNNING ON
 	1 HOST x 1 MPI RANK PER HOST x 8 THREADS PER RANK
        NUMBER OF EQUATIONS:  221425
        NUMBER OF RHS:        1
        NUMBER OF FLOPS:      4.810e+11
        SOLVER ELAPSED TIME:  2.5s

               CONVERGENCE CHECKS FOR EQUILIBRIUM ITERATION     1


 AVERAGE FORCE                       1.99       TIME AVG. FORCE        1.03    
 LARGEST SCALED RESIDUAL FORCE      3.151E-03   AT NODE      30746   DOF  2
   INSTANCE: CHD2                                                                            
  CORRESPONDING RESIDUAL FORCE      3.151E-03
 LARGEST INCREMENT OF DISP.         1.662E-05   AT NODE      42998   DOF  2
   INSTANCE: CHD2                                                                            
 LARGEST CORRECTION TO DISP.        9.947E-09   AT NODE      13262   DOF  2
   INSTANCE: CHD2                                                                            
          THE FORCE     EQUILIBRIUM EQUATIONS HAVE CONVERGED

 AVERAGE HEAT FLUX                  0.742       TIME AVG. HEAT FLUX   0.357    
 LARGEST RESIDUAL HEAT FLUX         1.113E-03   AT NODE       7594   DOF 12
   INSTANCE: CHD2                                                                            
[...]
   INSTANCE: CHD2                                                                            
          FORCE     EQUILIBRIUM NOT ACHIEVED WITHIN TOLERANCE.

 AVERAGE HEAT FLUX                   22.7       TIME AVG. HEAT FLUX    3.12    
 LARGEST RESIDUAL HEAT FLUX          2.75       AT NODE      36817   DOF 12
   INSTANCE: CHD2                                                                            
 LARGEST INCREMENT OF TEMP.          1.74       AT NODE      37471   DOF 11
   INSTANCE: CHD2                                                                            
 LARGEST CORRECTION TO TEMP.        2.422E-04   AT NODE      10900   DOF 12
   INSTANCE: CHD2                                                                            
          HEAT FLUX EQUILIBRIUM NOT ACHIEVED WITHIN TOLERANCE.
 
	UNSYMMETRIC NEW DIRECT SPARSE SOLVER RUNNING ON
 	1 HOST x 1 MPI RANK PER HOST x 8 THREADS PER RANK
        NUMBER OF EQUATIONS:  221425
        NUMBER OF RHS:        1
        NUMBER OF FLOPS:      4.810e+11
        SOLVER ELAPSED TIME:  2.5s

               CONVERGENCE CHECKS FOR EQUILIBRIUM ITERATION     4


 AVERAGE FORCE                       3.04       TIME AVG. FORCE        2.47    
 LARGEST SCALED RESIDUAL FORCE     -0.201       AT NODE      40814   DOF  3
   INSTANCE: CHD2                                                                            
  CORRESPONDING RESIDUAL FORCE     -0.201    
 LARGEST INCREMENT OF DISP.         6.825E-05   AT NODE      11410   DOF  2
   INSTANCE: CHD2                                                                            
 LARGEST CORRECTION TO DISP.        2.302E-07   AT NODE       5528   DOF  2
   INSTANCE: CHD2                                                                            
          FORCE     EQUILIBRIUM NOT ACHIEVED WITHIN TOLERANCE.

 AVERAGE HEAT FLUX                   22.7       TIME AVG. HEAT FLUX    3.12    
 LARGEST RESIDUAL HEAT FLUX          1.64       AT NODE      36777   DOF 12
   INSTANCE: CHD2                                                                            
 LARGEST INCREMENT OF TEMP.          1.74       AT NODE      37471   DOF 11
   INSTANCE: CHD2                                                                            
 LARGEST CORRECTION TO TEMP.        1.467E-04   AT NODE      10875   DOF 12
   INSTANCE: CHD2                                                                            
          HEAT FLUX EQUILIBRIUM NOT ACHIEVED WITHIN TOLERANCE.
 
	UNSYMMETRIC NEW DIRECT SPARSE SOLVER RUNNING ON
 	1 HOST x 1 MPI RANK PER HOST x 8 THREADS PER RANK
        NUMBER OF EQUATIONS:  221425
        NUMBER OF RHS:        1
        NUMBER OF FLOPS:      4.810e+11
        SOLVER ELAPSED TIME:  2.6s

               CONVERGENCE CHECKS FOR EQUILIBRIUM ITERATION     5


 AVERAGE FORCE                       3.04       TIME AVG. FORCE        2.47    
 LARGEST SCALED RESIDUAL FORCE      2.512E-02   AT NODE      36908   DOF  2
   INSTANCE: CHD2                                                                            
  CORRESPONDING RESIDUAL FORCE      2.512E-02
 LARGEST INCREMENT OF DISP.         6.825E-05   AT NODE      11410   DOF  2
   INSTANCE: CHD2                                                                            
 LARGEST CORRECTION TO DISP.        3.527E-08   AT NODE       5528   DOF  2
   INSTANCE: CHD2                                                                            
          FORCE     EQUILIBRIUM NOT ACHIEVED WITHIN TOLERANCE.

 AVERAGE HEAT FLUX                   22.7       TIME AVG. HEAT FLUX    3.12    
 LARGEST RESIDUAL HEAT FLUX          1.36       AT NODE      40814   DOF 12
   INSTANCE: CHD2                                                                            
 LARGEST INCREMENT OF TEMP.          1.74       AT NODE      37471   DOF 11
   INSTANCE: CHD2                                                                            
 LARGEST CORRECTION TO TEMP.        6.165E-05   AT NODE      37574   DOF 12
   INSTANCE: CHD2                                                                            
          HEAT FLUX EQUILIBRIUM NOT ACHIEVED WITHIN TOLERANCE.
 
	UNSYMMETRIC NEW DIRECT SPARSE SOLVER RUNNING ON
 	1 HOST x 1 MPI RANK PER HOST x 8 THREADS PER RANK
        NUMBER OF EQUATIONS:  221425
        NUMBER OF RHS:        1
        NUMBER OF FLOPS:      4.810e+11
        SOLVER ELAPSED TIME:  3.1s

               CONVERGENCE CHECKS FOR EQUILIBRIUM ITERATION     6


 AVERAGE FORCE                       3.04       TIME AVG. FORCE        2.47    
 LARGEST SCALED RESIDUAL FORCE     -4.627E-04   AT NODE      40111   DOF  2
   INSTANCE: CHD2                                                                            
  CORRESPONDING RESIDUAL FORCE     -4.627E-04
 LARGEST INCREMENT OF DISP.         6.825E-05   AT NODE      11410   DOF  2
   INSTANCE: CHD2                                                                            
 LARGEST CORRECTION TO DISP.        1.606E-09   AT NODE       5236   DOF  2
   INSTANCE: CHD2                                                                            
          THE FORCE     EQUILIBRIUM EQUATIONS HAVE CONVERGED

 AVERAGE HEAT FLUX                   22.7       TIME AVG. HEAT FLUX    3.12    
 LARGEST RESIDUAL HEAT FLUX         8.745E-02   AT NODE      22424   DOF 12
   INSTANCE: CHD2                                                                            
 LARGEST INCREMENT OF TEMP.          1.74       AT NODE      37471   DOF 11
   INSTANCE: CHD2                                                                            
 LARGEST CORRECTION TO TEMP.        2.782E-05   AT NODE       4891   DOF 12
   INSTANCE: CHD2                                                                            
          HEAT FLUX EQUILIBRIUM NOT ACHIEVED WITHIN TOLERANCE.
 
	UNSYMMETRIC NEW DIRECT SPARSE SOLVER RUNNING ON
 	1 HOST x 1 MPI RANK PER HOST x 8 THREADS PER RANK
        NUMBER OF EQUATIONS:  221425
        NUMBER OF RHS:        1
        NUMBER OF FLOPS:      4.810e+11
        SOLVER ELAPSED TIME:  3.7s

               CONVERGENCE CHECKS FOR EQUILIBRIUM ITERATION     7


 AVERAGE FORCE                       3.04       TIME AVG. FORCE        2.47    
 LARGEST SCALED RESIDUAL FORCE     -1.710E-09   AT NODE      39679   DOF  3
   INSTANCE: CHD2                                                                            
  CORRESPONDING RESIDUAL FORCE     -1.710E-09
 LARGEST INCREMENT OF DISP.         6.825E-05   AT NODE      11410   DOF  2
   INSTANCE: CHD2                                                                            
 LARGEST CORRECTION TO DISP.       -1.846E-11   AT NODE      40111   DOF  2
   INSTANCE: CHD2                                                                            
          THE FORCE     EQUILIBRIUM EQUATIONS HAVE CONVERGED

 AVERAGE HEAT FLUX                   22.7       TIME AVG. HEAT FLUX    3.12    
 LARGEST RESIDUAL HEAT FLUX         1.199E-06   AT NODE      17017   DOF 12
   INSTANCE: CHD2                                                                            
 LARGEST INCREMENT OF TEMP.          1.74       AT NODE      37471   DOF 11
   INSTANCE: CHD2                                                                            
 LARGEST CORRECTION TO TEMP.        7.756E-06   AT NODE       9427   DOF 12
   INSTANCE: CHD2                                                                            
          THE HEAT FLUX EQUILIBRIUM EQUATIONS HAVE CONVERGED

 MAXIMUM NON-PRESCRIBED INCREMENT IN TEMPERATURE IS    1.74    

 ITERATION SUMMARY FOR THE INCREMENT:   7 TOTAL ITERATIONS, OF WHICH
   0 ARE SEVERE DISCONTINUITY ITERATIONS AND  7 ARE EQUILIBRIUM ITERATIONS.

 TIME INCREMENT COMPLETED   6.65    ,  FRACTION OF STEP COMPLETED  0.690    
 STEP TIME COMPLETED        459.    ,  TOTAL TIME COMPLETED        7.659E+03


  INCREMENT    70 STARTS. ATTEMPT NUMBER  1, TIME INCREMENT   6.65    
 
	UNSYMMETRIC NEW DIRECT SPARSE SOLVER RUNNING ON
 	1 HOST x 1 MPI RANK PER HOST x 8 THREADS PER RANK
        NUMBER OF EQUATIONS:  221425
        NUMBER OF RHS:        1
        NUMBER OF FLOPS:      4.810e+11
        SOLVER ELAPSED TIME:  3.7s

               CONVERGENCE CHECKS FOR EQUILIBRIUM ITERATION     1


 AVERAGE FORCE                       2.59       TIME AVG. FORCE        2.47    
 LARGEST SCALED RESIDUAL FORCE      -98.8       AT NODE      36760   DOF  3
   INSTANCE: CHD2                                                                            
  CORRESPONDING RESIDUAL FORCE      -98.8    
 LARGEST INCREMENT OF DISP.        -1.049E-04   AT NODE        841   DOF  3
   INSTANCE: CHD2                                                                            
 LARGEST CORRECTION TO DISP.        6.482E-05   AT NODE       6056   DOF  2
   INSTANCE: CHD2                                                                            
          FORCE     EQUILIBRIUM NOT ACHIEVED WITHIN TOLERANCE.

 AVERAGE HEAT FLUX                   26.6       TIME AVG. HEAT FLUX    3.45    
 LARGEST RESIDUAL HEAT FLUX         -10.7       AT NODE      36714   DOF 12
   INSTANCE: CHD2                                                                            
 LARGEST INCREMENT OF TEMP.          3.15       AT NODE      37471   DOF 11
   INSTANCE: CHD2                                                                            
 LARGEST CORRECTION TO TEMP.         1.40       AT NODE      37471   DOF 11
   INSTANCE: CHD2                                                                            
          HEAT FLUX EQUILIBRIUM NOT ACHIEVED WITHIN TOLERANCE.
 
	UNSYMMETRIC NEW DIRECT SPARSE SOLVER RUNNING ON
 	1 HOST x 1 MPI RANK PER HOST x 8 THREADS PER RANK
        NUMBER OF EQUATIONS:  221425
        NUMBER OF RHS:        1
        NUMBER OF FLOPS:      4.810e+11
        SOLVER ELAPSED TIME:  2.7s

               CONVERGENCE CHECKS FOR EQUILIBRIUM ITERATION     2


 AVERAGE FORCE                       2.83       TIME AVG. FORCE        2.47    
 LARGEST SCALED RESIDUAL FORCE      -151.       AT NODE      36760   DOF  3
   INSTANCE: CHD2                                                                            
  CORRESPONDING RESIDUAL FORCE      -151.    
 LARGEST INCREMENT OF DISP.        -1.131E-04   AT NODE          2   DOF  3
   INSTANCE: CHD2                                                                            
 LARGEST CORRECTION TO DISP.       -1.328E-04   AT NODE      11988   DOF  2
   INSTANCE: CHD2                                                                            
          FORCE     EQUILIBRIUM NOT ACHIEVED WITHIN TOLERANCE.

 AVERAGE HEAT FLUX                   26.6       TIME AVG. HEAT FLUX    3.45    
 LARGEST RESIDUAL HEAT FLUX          7.34       AT NODE      28137   DOF 12
   INSTANCE: CHD2                                                                            
 LARGEST INCREMENT OF TEMP.          3.15       AT NODE      37471   DOF 11
   INSTANCE: CHD2                                                                            
 LARGEST CORRECTION TO TEMP.       -1.792E-03   AT NODE      36647   DOF 12
   INSTANCE: CHD2                                                                            
          HEAT FLUX EQUILIBRIUM NOT ACHIEVED WITHIN TOLERANCE.
 
	UNSYMMETRIC NEW DIRECT SPARSE SOLVER RUNNING ON
 	1 HOST x 1 MPI RANK PER HOST x 8 THREADS PER RANK
        NUMBER OF EQUATIONS:  221425
        NUMBER OF RHS:        1
        NUMBER OF FLOPS:      4.810e+11
        SOLVER ELAPSED TIME:  2.6s

               CONVERGENCE CHECKS FOR EQUILIBRIUM ITERATION     3


 AVERAGE FORCE                       2.85       TIME AVG. FORCE        2.47    
 LARGEST SCALED RESIDUAL FORCE      -140.       AT NODE      36767   DOF  3
   INSTANCE: CHD2                                                                            
  CORRESPONDING RESIDUAL FORCE      -140.    
 LARGEST INCREMENT OF DISP.         2.499E-04   AT NODE      12032   DOF  2
   INSTANCE: CHD2                                                                            
 LARGEST CORRECTION TO DISP.        2.780E-04   AT NODE      12010   DOF  2
   INSTANCE: CHD2                                                                            
          FORCE     EQUILIBRIUM NOT ACHIEVED WITHIN TOLERANCE.

 AVERAGE HEAT FLUX                   26.6       TIME AVG. HEAT FLUX    3.45    
 LARGEST RESIDUAL HEAT FLUX         -7.33       AT NODE      20401   DOF 12
   INSTANCE: CHD2                                                                            
 LARGEST INCREMENT OF TEMP.          3.15       AT NODE      37471   DOF 11
   INSTANCE: CHD2                                                                            
 LARGEST CORRECTION TO TEMP.        2.271E-03   AT NODE      12263   DOF 12
   INSTANCE: CHD2                                                                            
          HEAT FLUX EQUILIBRIUM NOT ACHIEVED WITHIN TOLERANCE.
 
	UNSYMMETRIC NEW DIRECT SPARSE SOLVER RUNNING ON
 	1 HOST x 1 MPI RANK PER HOST x 8 THREADS PER RANK
        NUMBER OF EQUATIONS:  221425
        NUMBER OF RHS:        1
        NUMBER OF FLOPS:      4.810e+11
        SOLVER ELAPSED TIME:  2.6s

               CONVERGENCE CHECKS FOR EQUILIBRIUM ITERATION     4


 AVERAGE FORCE                       3.45       TIME AVG. FORCE        2.48    
 LARGEST SCALED RESIDUAL FORCE      -299.       AT NODE      36683   DOF  3
   INSTANCE: CHD2                                                                            
  CORRESPONDING RESIDUAL FORCE      -299.    
 LARGEST INCREMENT OF DISP.         7.987E-04   AT NODE       4406   DOF  2
   INSTANCE: CHD2                                                                            
 LARGEST CORRECTION TO DISP.        1.016E-03   AT NODE       4415   DOF  2
   INSTANCE: CHD2                                                                            
          FORCE     EQUILIBRIUM NOT ACHIEVED WITHIN TOLERANCE.

 AVERAGE HEAT FLUX                   26.6       TIME AVG. HEAT FLUX    3.45    
 LARGEST RESIDUAL HEAT FLUX          8.83       AT NODE      38020   DOF 12
   INSTANCE: CHD2                                                                            
 LARGEST INCREMENT OF TEMP.          3.15       AT NODE      37471   DOF 11
   INSTANCE: CHD2                                                                            
 LARGEST CORRECTION TO TEMP.        2.350E-03   AT NODE      12006   DOF 12
   INSTANCE: CHD2                                                                            
          HEAT FLUX EQUILIBRIUM NOT ACHIEVED WITHIN TOLERANCE.
 

 ***NOTE: THE SOLUTION APPEARS TO BE DIVERGING. CONVERGENCE IS JUDGED UNLIKELY.


  INCREMENT    70 STARTS. ATTEMPT NUMBER  2, TIME INCREMENT   1.66    
 
	UNSYMMETRIC NEW DIRECT SPARSE SOLVER RUNNING ON
 	1 HOST x 1 MPI RANK PER HOST x 8 THREADS PER RANK
        NUMBER OF EQUATIONS:  221425
        NUMBER OF RHS:        1
        NUMBER OF FLOPS:      4.810e+11
        SOLVER ELAPSED TIME:  2.7s

               CONVERGENCE CHECKS FOR EQUILIBRIUM ITERATION     1


 AVERAGE FORCE                       2.56       TIME AVG. FORCE        2.47    
 LARGEST SCALED RESIDUAL FORCE      -72.7       AT NODE      36760   DOF  3
   INSTANCE: CHD2                                                                            
  CORRESPONDING RESIDUAL FORCE      -72.7    
 LARGEST INCREMENT OF DISP.        -9.334E-05   AT NODE        841   DOF  3
   INSTANCE: CHD2                                                                            
 LARGEST CORRECTION TO DISP.       -7.709E-05   AT NODE        841   DOF  3
   INSTANCE: CHD2                                                                            
          FORCE     EQUILIBRIUM NOT ACHIEVED WITHIN TOLERANCE.

 AVERAGE HEAT FLUX                   26.8       TIME AVG. HEAT FLUX    3.45    
 LARGEST RESIDUAL HEAT FLUX         -11.7       AT NODE      36876   DOF 12
   INSTANCE: CHD2                                                                            
 LARGEST INCREMENT OF TEMP.          1.41       AT NODE      37471   DOF 11
   INSTANCE: CHD2                                                                            
 LARGEST CORRECTION TO TEMP.        0.977       AT NODE      37471   DOF 11
   INSTANCE: CHD2                                                                            
          HEAT FLUX EQUILIBRIUM NOT ACHIEVED WITHIN TOLERANCE.
 
	UNSYMMETRIC NEW DIRECT SPARSE SOLVER RUNNING ON
 	1 HOST x 1 MPI RANK PER HOST x 8 THREADS PER RANK
        NUMBER OF EQUATIONS:  221425
        NUMBER OF RHS:        1
        NUMBER OF FLOPS:      4.810e+11
        SOLVER ELAPSED TIME:  2.7s

               CONVERGENCE CHECKS FOR EQUILIBRIUM ITERATION     2


 AVERAGE FORCE                       2.57       TIME AVG. FORCE        2.47    
 LARGEST SCALED RESIDUAL FORCE       18.0       AT NODE      22487   DOF  2
   INSTANCE: CHD2                                                                            
  CORRESPONDING RESIDUAL FORCE       18.0    
 LARGEST INCREMENT OF DISP.        -1.021E-04   AT NODE        218   DOF  3
   INSTANCE: CHD2                                                                            
 LARGEST CORRECTION TO DISP.       -2.085E-05   AT NODE      11922   DOF  2
   INSTANCE: CHD2                                                                            
          FORCE     EQUILIBRIUM NOT ACHIEVED WITHIN TOLERANCE.

 AVERAGE HEAT FLUX                   26.9       TIME AVG. HEAT FLUX    3.45    
 LARGEST RESIDUAL HEAT FLUX          8.43       AT NODE      28137   DOF 12
   INSTANCE: CHD2                                                                            
 LARGEST INCREMENT OF TEMP.          1.41       AT NODE      37471   DOF 11
   INSTANCE: CHD2                                                                            
 LARGEST CORRECTION TO TEMP.        1.759E-03   AT NODE      36192   DOF 12
   INSTANCE: CHD2                                                                            
          HEAT FLUX EQUILIBRIUM NOT ACHIEVED WITHIN TOLERANCE.
 
	UNSYMMETRIC NEW DIRECT SPARSE SOLVER RUNNING ON
 	1 HOST x 1 MPI RANK PER HOST x 8 THREADS PER RANK
        NUMBER OF EQUATIONS:  221425
        NUMBER OF RHS:        1
        NUMBER OF FLOPS:      4.810e+11
        SOLVER ELAPSED TIME:  2.6s

               CONVERGENCE CHECKS FOR EQUILIBRIUM ITERATION     3


 AVERAGE FORCE                       2.57       TIME AVG. FORCE        2.47    
 LARGEST SCALED RESIDUAL FORCE      -17.6       AT NODE      36871   DOF  2
   INSTANCE: CHD2                                                                            
  CORRESPONDING RESIDUAL FORCE      -17.6    
 LARGEST INCREMENT OF DISP.        -1.032E-04   AT NODE        218   DOF  3
   INSTANCE: CHD2                                                                            
 LARGEST CORRECTION TO DISP.        3.568E-05   AT NODE      11922   DOF  2
   INSTANCE: CHD2                                                                            
          FORCE     EQUILIBRIUM NOT ACHIEVED WITHIN TOLERANCE.

 AVERAGE HEAT FLUX                   26.9       TIME AVG. HEAT FLUX    3.45    
 LARGEST RESIDUAL HEAT FLUX         -6.44       AT NODE      17713   DOF 12
   INSTANCE: CHD2                                                                            
 LARGEST INCREMENT OF TEMP.          1.41       AT NODE      37471   DOF 11
   INSTANCE: CHD2                                                                            
 LARGEST CORRECTION TO TEMP.       -9.845E-04   AT NODE       9957   DOF 12
   INSTANCE: CHD2                                                                            
          HEAT FLUX EQUILIBRIUM NOT ACHIEVED WITHIN TOLERANCE.
 
	UNSYMMETRIC NEW DIRECT SPARSE SOLVER RUNNING ON
 	1 HOST x 1 MPI RANK PER HOST x 8 THREADS PER RANK
        NUMBER OF EQUATIONS:  221425
        NUMBER OF RHS:        1
        NUMBER OF FLOPS:      4.810e+11
