1

   Abaqus 2023.HF4                                  Date 29-Oct-2024   Time 11:56:24
   For use by AALTO UNIVERSITY under license from Dassault Systemes or its subsidiary.

                                                                                 
                                                                                 
 STEP    1     INCREMENT     1     STEP TIME    0.00    


                        S T E P       1     C O U P L E D - T E M P E R A T U R E - D I S P L A C E M E N T   A N A L Y S I S


                                                                                          

          FIXED TIME INCREMENTS
          TIME INCREMENT IS                                    1.440E+03
          TIME PERIOD IS                                       7.200E+03

          CREEP AND SWELLING EFFECTS ARE OMITTED IN THIS STEP
          THE RATE DEPENDENCY WILL BE CONSIDERED IN THIS STEP

          CREEP AND SWELLING EFFECTS WILL BE IGNORED.

 CONVERGENCE TOLERANCE PARAMETERS FOR FORCE    
     CRITERION FOR RESIDUAL FORCE     FOR A NONLINEAR PROBLEM          5.000E-03
     CRITERION FOR DISP.    CORRECTION IN A NONLINEAR PROBLEM          1.000E-02
     INITIAL VALUE OF TIME AVERAGE FORCE                               1.000E-02
     AVERAGE FORCE     IS TIME AVERAGE FORCE    
     ALTERNATE CRIT. FOR RESIDUAL FORCE     FOR A NONLINEAR PROBLEM    2.000E-02
     CRITERION FOR ZERO FORCE     RELATIVE TO TIME AVRG. FORCE         1.000E-05
     CRITERION FOR RESIDUAL FORCE     WHEN THERE IS ZERO FLUX          1.000E-05
     CRITERION FOR DISP.    CORRECTION WHEN THERE IS ZERO FLUX         1.000E-03
     CRITERION FOR RESIDUAL FORCE     FOR A LINEAR INCREMENT           1.000E-08
     FIELD CONVERSION RATIO                                             1.00    
     CRITERION FOR ZERO FORCE     REL. TO TIME AVRG. MAX. FORCE        1.000E-05
     CRITERION FOR ZERO DISP.    RELATIVE TO CHARACTERISTIC LENGTH     1.000E-08

 CONVERGENCE TOLERANCE PARAMETERS FOR HEAT FLUX
     CRITERION FOR RESIDUAL HEAT FLUX FOR A NONLINEAR PROBLEM          5.000E-03
     CRITERION FOR TEMP.    CORRECTION IN A NONLINEAR PROBLEM          1.000E-02
     INITIAL VALUE OF TIME AVERAGE HEAT FLUX                           1.000E-02
     AVERAGE HEAT FLUX IS TIME AVERAGE HEAT FLUX
     ALTERNATE CRIT. FOR RESIDUAL HEAT FLUX FOR A NONLINEAR PROBLEM    2.000E-02
     CRITERION FOR ZERO HEAT FLUX RELATIVE TO TIME AVRG. HEAT FLUX     1.000E-05
     CRITERION FOR RESIDUAL HEAT FLUX WHEN THERE IS ZERO FLUX          1.000E-05
     CRITERION FOR TEMP.    CORRECTION WHEN THERE IS ZERO FLUX         1.000E-03
     CRITERION FOR RESIDUAL HEAT FLUX FOR A LINEAR INCREMENT           1.000E-08
     FIELD CONVERSION RATIO                                             1.00    
     CRITERION FOR ZERO HEAT FLUX REL. TO TIME AVRG. MAX. HEAT FLUX    1.000E-05

     VOLUMETRIC STRAIN COMPATIBILITY TOLERANCE FOR HYBRID SOLIDS       1.000E-05
     AXIAL STRAIN COMPATIBILITY TOLERANCE FOR HYBRID BEAMS             1.000E-05
     TRANS. SHEAR STRAIN COMPATIBILITY TOLERANCE FOR HYBRID BEAMS      1.000E-05
     SOFT CONTACT CONSTRAINT COMPATIBILITY TOLERANCE FOR P>P0          5.000E-03
     SOFT CONTACT CONSTRAINT COMPATIBILITY TOLERANCE FOR P=0.0         0.100    
     CONTACT FORCE ERROR TOLERANCE FOR CONVERT SDI=YES                 1.00    
     DISPLACEMENT COMPATIBILITY TOLERANCE FOR DCOUP ELEMENTS           1.000E-05
     ROTATION COMPATIBILITY TOLERANCE FOR DCOUP ELEMENTS               1.000E-05

 EQUILIBRIUM WILL BE CHECKED FOR SEVERE DISCONTINUITY ITERATIONS

 ITERATION CONTROL PARAMETERS:
     FIRST EQUILIBRIUM ITERATION FOR CONSECUTIVE DIVERGENCE CHECK              4
     EQUILIBRIUM ITERATION AFTER WHICH ALTERNATE RESIDUAL IS USED              9
     MAXIMUM EQUILIBRIUM ITERATIONS ALLOWED                                   16
     MAXIMUM ITERATIONS FOR SEVERE DISCONTINUITIES                            12
     GLOBAL STABILIZATION CONTROL IS NOT USED

          PRINT OF INCREMENT NUMBER, TIME, ETC., EVERY    1  INCREMENTS

     THE MAXIMUM NUMBER OF INCREMENTS IN THIS STEP IS                 1000000

          LARGE DISPLACEMENT THEORY WILL BE USED

          UNSYMMETRIC MATRIX STORAGE AND SOLUTION WILL BE USED

     LINEAR EXTRAPOLATION WILL BE USED

     CHARACTERISTIC ELEMENT LENGTH     2.620E-04

     DETAILS REGARDING ACTUAL SOLUTION WAVEFRONT REQUESTED

     DETAILED OUTPUT OF DIAGNOSTICS TO DATABASE REQUESTED

     PRINT OF INCREMENT NUMBER, TIME, ETC., TO THE MESSAGE FILE EVERY     1  INCREMENTS

     ELEMENT OPERATIONS WILL BE CARRIED OUT IN PARALLEL USING   6 THREADS ON 1 DOMAIN

     PARALLEL CONTACT TRACKING ENABLED


     COLLECTING MODEL CONSTRAINT INFORMATION FOR OVERCONSTRAINT CHECKS

     COLLECTING STEP CONSTRAINT INFORMATION FOR OVERCONSTRAINT CHECKS


  INCREMENT     1 STARTS. ATTEMPT NUMBER  1, TIME INCREMENT  1.440E+03
 
     INITIAL ELEMENT LOAD BALANCE
            DOMAIN    1     THREAD    NUMBER OF ELEMENTS
                              1            5840
                              2            5741
                              3            5568
                              4            5600
                              5            5864
                              6            5824
 
	UNSYMMETRIC NEW DIRECT SPARSE SOLVER RUNNING ON
 	1 HOST x 1 MPI RANK PER HOST x 6 THREADS PER RANK
        NUMBER OF EQUATIONS:  172056
        NUMBER OF RHS:        1
        NUMBER OF FLOPS:      2.671e+11
        SOLVER ELAPSED TIME:  3.8s

               CONVERGENCE CHECKS FOR EQUILIBRIUM ITERATION     1


 AVERAGE FORCE                       0.00       TIME AVG. FORCE       1.000E-02
 ALL FORCE     RESIDUALS ARE ZERO
 ALL DISP.    INCREMENTS ARE ZERO
 ALL CORRECTION TO DISP.    ARE ZERO
          THERE IS ZERO FORCE     EVERYWHERE

 AVERAGE HEAT FLUX                  8.758E-14   TIME AVG. HEAT FLUX   1.000E-02
 LARGEST RESIDUAL HEAT FLUX         1.334E-15   AT NODE      40779   DOF 11
   INSTANCE: NDBR15                                                                          
 LARGEST INCREMENT OF TEMP.          8.72       AT NODE          1   DOF 11
   INSTANCE: NDBR15                                                                          
 LARGEST CORRECTION TO TEMP.         8.72       AT NODE          1   DOF 11
   INSTANCE: NDBR15                                                                          
          THERE IS ZERO HEAT FLUX EVERYWHERE
 

 ***WARNING: THERE IS ZERO HEAT FLUX EVERYWHERE IN THE MODEL BASED ON THE 
             DEFAULT CRITERION. PLEASE CHECK THE VALUE OF THE AVERAGE HEAT FLUX 
             DURING THE CURRENT ITERATION TO VERIFY THAT THE HEAT FLUX IS SMALL 
             ENOUGH TO BE TREATED AS ZERO. IF NOT, PLEASE USE THE SOLUTION 
             CONTROLS TO RESET THE CRITERION FOR ZERO HEAT FLUX.

 ITERATION SUMMARY FOR THE INCREMENT:   1 TOTAL ITERATIONS, OF WHICH
   0 ARE SEVERE DISCONTINUITY ITERATIONS AND  1 ARE EQUILIBRIUM ITERATIONS.

 TIME INCREMENT COMPLETED  1.440E+03,  FRACTION OF STEP COMPLETED  0.200    
 STEP TIME COMPLETED       1.440E+03,  TOTAL TIME COMPLETED        1.440E+03


  INCREMENT     2 STARTS. ATTEMPT NUMBER  1, TIME INCREMENT  1.440E+03
 
	UNSYMMETRIC NEW DIRECT SPARSE SOLVER RUNNING ON
 	1 HOST x 1 MPI RANK PER HOST x 6 THREADS PER RANK
        NUMBER OF EQUATIONS:  172056
        NUMBER OF RHS:        1
        NUMBER OF FLOPS:      2.671e+11
        SOLVER ELAPSED TIME:  5.0s

               CONVERGENCE CHECKS FOR EQUILIBRIUM ITERATION     1


 AVERAGE FORCE                       0.00       TIME AVG. FORCE       1.000E-02
 ALL FORCE     RESIDUALS ARE ZERO
 ALL DISP.    INCREMENTS ARE ZERO
 ALL CORRECTION TO DISP.    ARE ZERO
          THERE IS ZERO FORCE     EVERYWHERE

 AVERAGE HEAT FLUX                  1.703E-14   TIME AVG. HEAT FLUX   1.000E-02
 LARGEST RESIDUAL HEAT FLUX        -2.069E-16   AT NODE      40834   DOF 11
   INSTANCE: NDBR15                                                                          
 LARGEST INCREMENT OF TEMP.          1.99       AT NODE      42438   DOF 11
   INSTANCE: NDBR15                                                                          
 LARGEST CORRECTION TO TEMP.        -8.72       AT NODE          1   DOF 11
   INSTANCE: NDBR15                                                                          
          THERE IS ZERO HEAT FLUX EVERYWHERE
 

 ***WARNING: THERE IS ZERO HEAT FLUX EVERYWHERE IN THE MODEL BASED ON THE 
             DEFAULT CRITERION. PLEASE CHECK THE VALUE OF THE AVERAGE HEAT FLUX 
             DURING THE CURRENT ITERATION TO VERIFY THAT THE HEAT FLUX IS SMALL 
             ENOUGH TO BE TREATED AS ZERO. IF NOT, PLEASE USE THE SOLUTION 
             CONTROLS TO RESET THE CRITERION FOR ZERO HEAT FLUX.

 ITERATION SUMMARY FOR THE INCREMENT:   1 TOTAL ITERATIONS, OF WHICH
   0 ARE SEVERE DISCONTINUITY ITERATIONS AND  1 ARE EQUILIBRIUM ITERATIONS.

 TIME INCREMENT COMPLETED  1.440E+03,  FRACTION OF STEP COMPLETED  0.400    
 STEP TIME COMPLETED       2.880E+03,  TOTAL TIME COMPLETED        2.880E+03


  INCREMENT     3 STARTS. ATTEMPT NUMBER  1, TIME INCREMENT  1.440E+03
 
	UNSYMMETRIC NEW DIRECT SPARSE SOLVER RUNNING ON
 	1 HOST x 1 MPI RANK PER HOST x 6 THREADS PER RANK
        NUMBER OF EQUATIONS:  172056
        NUMBER OF RHS:        1
        NUMBER OF FLOPS:      2.671e+11
        SOLVER ELAPSED TIME:  17s

               CONVERGENCE CHECKS FOR EQUILIBRIUM ITERATION     1


 AVERAGE FORCE                       0.00       TIME AVG. FORCE       1.000E-02
 ALL FORCE     RESIDUALS ARE ZERO
 ALL DISP.    INCREMENTS ARE ZERO
 ALL CORRECTION TO DISP.    ARE ZERO
          THERE IS ZERO FORCE     EVERYWHERE

 AVERAGE HEAT FLUX                  3.825E-15   TIME AVG. HEAT FLUX   1.000E-02
 LARGEST RESIDUAL HEAT FLUX        -1.762E-17   AT NODE      42923   DOF 11
   INSTANCE: NDBR15                                                                          
 LARGEST INCREMENT OF TEMP.         0.572       AT NODE      42936   DOF 11
   INSTANCE: NDBR15                                                                          
 LARGEST CORRECTION TO TEMP.        -1.43       AT NODE      42572   DOF 11
   INSTANCE: NDBR15                                                                          
          THERE IS ZERO HEAT FLUX EVERYWHERE
 

 ***WARNING: THERE IS ZERO HEAT FLUX EVERYWHERE IN THE MODEL BASED ON THE 
             DEFAULT CRITERION. PLEASE CHECK THE VALUE OF THE AVERAGE HEAT FLUX 
             DURING THE CURRENT ITERATION TO VERIFY THAT THE HEAT FLUX IS SMALL 
             ENOUGH TO BE TREATED AS ZERO. IF NOT, PLEASE USE THE SOLUTION 
             CONTROLS TO RESET THE CRITERION FOR ZERO HEAT FLUX.

 ITERATION SUMMARY FOR THE INCREMENT:   1 TOTAL ITERATIONS, OF WHICH
   0 ARE SEVERE DISCONTINUITY ITERATIONS AND  1 ARE EQUILIBRIUM ITERATIONS.

 TIME INCREMENT COMPLETED  1.440E+03,  FRACTION OF STEP COMPLETED  0.600    
 STEP TIME COMPLETED       4.320E+03,  TOTAL TIME COMPLETED        4.320E+03


  INCREMENT     4 STARTS. ATTEMPT NUMBER  1, TIME INCREMENT  1.440E+03
 
	UNSYMMETRIC NEW DIRECT SPARSE SOLVER RUNNING ON
 	1 HOST x 1 MPI RANK PER HOST x 6 THREADS PER RANK
        NUMBER OF EQUATIONS:  172056
        NUMBER OF RHS:        1
        NUMBER OF FLOPS:      2.671e+11
        SOLVER ELAPSED TIME:  4.4s

               CONVERGENCE CHECKS FOR EQUILIBRIUM ITERATION     1


 AVERAGE FORCE                       0.00       TIME AVG. FORCE       1.000E-02
 ALL FORCE     RESIDUALS ARE ZERO
 ALL DISP.    INCREMENTS ARE ZERO
 ALL CORRECTION TO DISP.    ARE ZERO
          THERE IS ZERO FORCE     EVERYWHERE

 AVERAGE HEAT FLUX                  8.642E-16   TIME AVG. HEAT FLUX   1.000E-02
 LARGEST RESIDUAL HEAT FLUX        -1.692E-18   AT NODE      42936   DOF 11
   INSTANCE: NDBR15                                                                          
 LARGEST INCREMENT OF TEMP.         0.182       AT NODE      42936   DOF 11
   INSTANCE: NDBR15                                                                          
 LARGEST CORRECTION TO TEMP.       -0.409       AT NODE      42438   DOF 11
   INSTANCE: NDBR15                                                                          
          THERE IS ZERO HEAT FLUX EVERYWHERE
 

 ***WARNING: THERE IS ZERO HEAT FLUX EVERYWHERE IN THE MODEL BASED ON THE 
             DEFAULT CRITERION. PLEASE CHECK THE VALUE OF THE AVERAGE HEAT FLUX 
             DURING THE CURRENT ITERATION TO VERIFY THAT THE HEAT FLUX IS SMALL 
             ENOUGH TO BE TREATED AS ZERO. IF NOT, PLEASE USE THE SOLUTION 
             CONTROLS TO RESET THE CRITERION FOR ZERO HEAT FLUX.

 ITERATION SUMMARY FOR THE INCREMENT:   1 TOTAL ITERATIONS, OF WHICH
   0 ARE SEVERE DISCONTINUITY ITERATIONS AND  1 ARE EQUILIBRIUM ITERATIONS.

 TIME INCREMENT COMPLETED  1.440E+03,  FRACTION OF STEP COMPLETED  0.800    
 STEP TIME COMPLETED       5.760E+03,  TOTAL TIME COMPLETED        5.760E+03


  INCREMENT     5 STARTS. ATTEMPT NUMBER  1, TIME INCREMENT  1.440E+03
 
	UNSYMMETRIC NEW DIRECT SPARSE SOLVER RUNNING ON
 	1 HOST x 1 MPI RANK PER HOST x 6 THREADS PER RANK
        NUMBER OF EQUATIONS:  172056
        NUMBER OF RHS:        1
        NUMBER OF FLOPS:      2.671e+11
        SOLVER ELAPSED TIME:  4.0s

               CONVERGENCE CHECKS FOR EQUILIBRIUM ITERATION     1


 AVERAGE FORCE                       0.00       TIME AVG. FORCE       1.000E-02
 ALL FORCE     RESIDUALS ARE ZERO
 ALL DISP.    INCREMENTS ARE ZERO
 ALL CORRECTION TO DISP.    ARE ZERO
          THERE IS ZERO FORCE     EVERYWHERE

 AVERAGE HEAT FLUX                  1.973E-16   TIME AVG. HEAT FLUX   1.000E-02
 LARGEST RESIDUAL HEAT FLUX        -1.753E-19   AT NODE      42936   DOF 11
   INSTANCE: NDBR15                                                                          
 LARGEST INCREMENT OF TEMP.         6.067E-02   AT NODE      42936   DOF 11
   INSTANCE: NDBR15                                                                          
 LARGEST CORRECTION TO TEMP.       -0.121       AT NODE      42923   DOF 11
   INSTANCE: NDBR15                                                                          
          THERE IS ZERO HEAT FLUX EVERYWHERE
 

 ***WARNING: THERE IS ZERO HEAT FLUX EVERYWHERE IN THE MODEL BASED ON THE 
             DEFAULT CRITERION. PLEASE CHECK THE VALUE OF THE AVERAGE HEAT FLUX 
             DURING THE CURRENT ITERATION TO VERIFY THAT THE HEAT FLUX IS SMALL 
             ENOUGH TO BE TREATED AS ZERO. IF NOT, PLEASE USE THE SOLUTION 
             CONTROLS TO RESET THE CRITERION FOR ZERO HEAT FLUX.

 ITERATION SUMMARY FOR THE INCREMENT:   1 TOTAL ITERATIONS, OF WHICH
   0 ARE SEVERE DISCONTINUITY ITERATIONS AND  1 ARE EQUILIBRIUM ITERATIONS.

 TIME INCREMENT COMPLETED  1.440E+03,  FRACTION OF STEP COMPLETED   1.00    
 STEP TIME COMPLETED       7.200E+03,  TOTAL TIME COMPLETED        7.200E+03
1

   Abaqus 2023.HF4                                  Date 29-Oct-2024   Time 11:57:17
   For use by AALTO UNIVERSITY under license from Dassault Systemes or its subsidiary.

                                                                                 
                                                                                 
 STEP    2     INCREMENT     1     STEP TIME    0.00    


                        S T E P       2     C O U P L E D - T E M P E R A T U R E - D I S P L A C E M E N T   A N A L Y S I S


                                                                                          

     AUTOMATIC TIME CONTROL WITH -
          A SUGGESTED INITIAL TIME INCREMENT OF                 6.75    
          AND A TOTAL TIME PERIOD OF                            675.    
          THE MINIMUM TIME INCREMENT ALLOWED IS                1.000E-07
          THE MAXIMUM TIME INCREMENT ALLOWED IS                 6.75    

          CREEP AND SWELLING EFFECTS ARE OMITTED IN THIS STEP

     THE SIZE OF THE TIME INCREMENT IS CONTROLLED BY -
          THE TEMPERATURE CHANGE PER INCREMENT NOT EXCEEDING           1.000E+03
          THE RATE DEPENDENCY WILL BE CONSIDERED IN THIS STEP

          CREEP AND SWELLING EFFECTS WILL BE IGNORED.

 CONVERGENCE TOLERANCE PARAMETERS FOR FORCE    
     CRITERION FOR RESIDUAL FORCE     FOR A NONLINEAR PROBLEM          5.000E-03
     CRITERION FOR DISP.    CORRECTION IN A NONLINEAR PROBLEM          1.000E-02
     INIT. VALUE OF TIME AVG. FORCE     IS TIME AVG. FORCE     IN PREVIOUS STEP
     AVERAGE FORCE     IS TIME AVERAGE FORCE    
     ALTERNATE CRIT. FOR RESIDUAL FORCE     FOR A NONLINEAR PROBLEM    2.000E-02
     CRITERION FOR ZERO FORCE     RELATIVE TO TIME AVRG. FORCE         1.000E-05
     CRITERION FOR RESIDUAL FORCE     WHEN THERE IS ZERO FLUX          1.000E-05
     CRITERION FOR DISP.    CORRECTION WHEN THERE IS ZERO FLUX         1.000E-03
     CRITERION FOR RESIDUAL FORCE     FOR A LINEAR INCREMENT           1.000E-08
     FIELD CONVERSION RATIO                                             1.00    
     CRITERION FOR ZERO FORCE     REL. TO TIME AVRG. MAX. FORCE        1.000E-05
     CRITERION FOR ZERO DISP.    RELATIVE TO CHARACTERISTIC LENGTH     1.000E-08

 CONVERGENCE TOLERANCE PARAMETERS FOR HEAT FLUX
     CRITERION FOR RESIDUAL HEAT FLUX FOR A NONLINEAR PROBLEM          5.000E-03
     CRITERION FOR TEMP.    CORRECTION IN A NONLINEAR PROBLEM          1.000E-02
     INIT. VALUE OF TIME AVG. HEAT FLUX IS TIME AVG. HEAT FLUX IN PREVIOUS STEP
     AVERAGE HEAT FLUX IS TIME AVERAGE HEAT FLUX
     ALTERNATE CRIT. FOR RESIDUAL HEAT FLUX FOR A NONLINEAR PROBLEM    2.000E-02
     CRITERION FOR ZERO HEAT FLUX RELATIVE TO TIME AVRG. HEAT FLUX     1.000E-05
     CRITERION FOR RESIDUAL HEAT FLUX WHEN THERE IS ZERO FLUX          1.000E-05
     CRITERION FOR TEMP.    CORRECTION WHEN THERE IS ZERO FLUX         1.000E-03
     CRITERION FOR RESIDUAL HEAT FLUX FOR A LINEAR INCREMENT           1.000E-08
     FIELD CONVERSION RATIO                                             1.00    
     CRITERION FOR ZERO HEAT FLUX REL. TO TIME AVRG. MAX. HEAT FLUX    1.000E-05

     VOLUMETRIC STRAIN COMPATIBILITY TOLERANCE FOR HYBRID SOLIDS       1.000E-05
     AXIAL STRAIN COMPATIBILITY TOLERANCE FOR HYBRID BEAMS             1.000E-05
     TRANS. SHEAR STRAIN COMPATIBILITY TOLERANCE FOR HYBRID BEAMS      1.000E-05
     SOFT CONTACT CONSTRAINT COMPATIBILITY TOLERANCE FOR P>P0          5.000E-03
     SOFT CONTACT CONSTRAINT COMPATIBILITY TOLERANCE FOR P=0.0         0.100    
     CONTACT FORCE ERROR TOLERANCE FOR CONVERT SDI=YES                 1.00    
     DISPLACEMENT COMPATIBILITY TOLERANCE FOR DCOUP ELEMENTS           1.000E-05
     ROTATION COMPATIBILITY TOLERANCE FOR DCOUP ELEMENTS               1.000E-05

 EQUILIBRIUM WILL BE CHECKED FOR SEVERE DISCONTINUITY ITERATIONS

 TIME INCREMENTATION CONTROL PARAMETERS:
     FIRST EQUILIBRIUM ITERATION FOR CONSECUTIVE DIVERGENCE CHECK              4
     EQUILIBRIUM ITERATION AT WHICH LOG. CONVERGENCE RATE CHECK BEGINS         8
     EQUILIBRIUM ITERATION AFTER WHICH ALTERNATE RESIDUAL IS USED              9
     MAXIMUM EQUILIBRIUM ITERATIONS ALLOWED                                   16
     EQUILIBRIUM ITERATION COUNT FOR CUT-BACK IN NEXT INCREMENT               10
     MAXIMUM EQUILIB. ITERS IN TWO INCREMENTS FOR TIME INCREMENT INCREASE      4
     MAXIMUM ITERATIONS FOR SEVERE DISCONTINUITIES                            50
     MAXIMUM ATTEMPTS ALLOWED IN AN INCREMENT                                  5
     MAXIMUM DISCON. ITERS IN TWO INCREMENTS FOR TIME INCREMENT INCREASE      50
     MAXIMUM CONTACT AUGMENTATIONS FOR *SURFACE BEHAVIOR,AUGMENTED LAGRANGE   50
     CONSECUTIVE INCS MEETING TIME INTEG. TOL. FOR TIME INC. INCREASE          3
     CUT-BACK FACTOR AFTER DIVERGENCE                                 0.2500    
     CUT-BACK FACTOR FOR TOO SLOW CONVERGENCE                         0.5000    
     CUT-BACK FACTOR AFTER TOO MANY EQUILIBRIUM ITERATIONS            0.7500    
     CUT-BACK FACTOR AFTER TOO MANY SEVERE DISCONTINUITY ITERATIONS   0.2500    
     CUT-BACK FACTOR AFTER PROBLEMS IN ELEMENT ASSEMBLY               0.2500    
     INCREASE FACTOR AFTER TWO INCREMENTS THAT CONVERGE QUICKLY        1.500    
     MAX. TIME INCREMENT INCREASE FACTOR ALLOWED                       1.500    
     MAX. TIME INCREMENT INCREASE FACTOR ALLOWED (DYNAMICS)            1.250    
     MAX. TIME INCREMENT INCREASE FACTOR ALLOWED (DIFFUSION)           2.000    
     MINIMUM TIME INCREMENT RATIO FOR EXTRAPOLATION TO OCCUR          0.1000    
     CUT-BACK FACTOR WHEN TIME INTEGRATION ACCURACY TOL. EXCEEDED     0.8500    
     MAX. RATIO OF TIME INTEG. MEASURE TO TOL. FOR TIME INC. INCREASE 0.7500    
     INCREASE FACTOR FOR TIME INCREMENT WHEN POSSIBLE                 0.8000    
     MIN. TIME INC. INCREASE FACTOR IN LINEAR TRANSIENT PROBLEMS      0.9500    
     MAX. RATIO OF TIME INCREMENT TO STABILITY LIMIT                   1.000    
     FRACTION OF STABILITY LIMIT FOR NEW TIME INCREMENT               0.9500    
     TIME INCREMENT INCREASE FACTOR BEFORE A TIME POINT                1.000    
     GLOBAL STABILIZATION CONTROL IS NOT USED

          PRINT OF INCREMENT NUMBER, TIME, ETC., EVERY    1  INCREMENTS

     THE MAXIMUM NUMBER OF INCREMENTS IN THIS STEP IS                 1000000

          LARGE DISPLACEMENT THEORY WILL BE USED

          UNSYMMETRIC MATRIX STORAGE AND SOLUTION WILL BE USED

     LINEAR EXTRAPOLATION WILL BE USED

     CHARACTERISTIC ELEMENT LENGTH     2.620E-04

     DETAILS REGARDING ACTUAL SOLUTION WAVEFRONT REQUESTED

     DETAILED OUTPUT OF DIAGNOSTICS TO DATABASE REQUESTED

     PRINT OF INCREMENT NUMBER, TIME, ETC., TO THE MESSAGE FILE EVERY     1  INCREMENTS

     ELEMENT OPERATIONS WILL BE CARRIED OUT IN PARALLEL USING   6 THREADS ON 1 DOMAIN

     COLLECTING STEP CONSTRAINT INFORMATION FOR OVERCONSTRAINT CHECKS


  INCREMENT     1 STARTS. ATTEMPT NUMBER  1, TIME INCREMENT   6.75    
 
     INITIAL ELEMENT LOAD BALANCE
            DOMAIN    1     THREAD    NUMBER OF ELEMENTS
                              1            5728
                              2            5600
                              3            5717
                              4            5680
                              5            5816
                              6            5896
 
	UNSYMMETRIC NEW DIRECT SPARSE SOLVER RUNNING ON
 	1 HOST x 1 MPI RANK PER HOST x 6 THREADS PER RANK
        NUMBER OF EQUATIONS:  172056
        NUMBER OF RHS:        1
        NUMBER OF FLOPS:      2.671e+11
        SOLVER ELAPSED TIME:  1.8s

 ***WARNING: SOLVER PROBLEM.  ZERO PIVOT WHEN PROCESSING NODE 5862 INSTANCE 
             NDBR15 D.O.F. 11
  Typically a zero pivot is associated with an overconstraint in the model. 
 However, Abaqus was not able to identify any chains of constraints that might 
 lead to an overconstraint at this node. This suggests that the model might be 
 in fact insufficiently constrained in this particular degree of freedom. 
 Please check the constraints used in this model. 


 ***WARNING: SOLVER PROBLEM.  ZERO PIVOT WHEN PROCESSING NODE 5978 INSTANCE 
             NDBR15 D.O.F. 11
  Typically a zero pivot is associated with an overconstraint in the model. 
 However, Abaqus was not able to identify any chains of constraints that might 
 lead to an overconstraint at this node. This suggests that the model might be 
 in fact insufficiently constrained in this particular degree of freedom. 
 Please check the constraints used in this model. 


 ***WARNING: SOLVER PROBLEM.  ZERO PIVOT WHEN PROCESSING NODE 5920 INSTANCE 
             NDBR15 D.O.F. 11
  Typically a zero pivot is associated with an overconstraint in the model. 
 However, Abaqus was not able to identify any chains of constraints that might 
 lead to an overconstraint at this node. This suggests that the model might be 
 in fact insufficiently constrained in this particular degree of freedom. 
 Please check the constraints used in this model. 


 ***WARNING: SOLVER PROBLEM.  ZERO PIVOT WHEN PROCESSING NODE 5859 INSTANCE 
             NDBR15 D.O.F. 11
  Typically a zero pivot is associated with an overconstraint in the model. 
 However, Abaqus was not able to identify any chains of constraints that might 
 lead to an overconstraint at this node. This suggests that the model might be 
 in fact insufficiently constrained in this particular degree of freedom. 
 Please check the constraints used in this model. 


 ***WARNING: SOLVER PROBLEM.  ZERO PIVOT WHEN PROCESSING NODE 5975 INSTANCE 
             NDBR15 D.O.F. 11
  Typically a zero pivot is associated with an overconstraint in the model. 
 However, Abaqus was not able to identify any chains of constraints that might 
 lead to an overconstraint at this node. This suggests that the model might be 
 in fact insufficiently constrained in this particular degree of freedom. 
 Please check the constraints used in this model. 


 ***WARNING: SOLVER PROBLEM.  ZERO PIVOT WHEN PROCESSING NODE 5917 INSTANCE 
             NDBR15 D.O.F. 11
  Typically a zero pivot is associated with an overconstraint in the model. 
 However, Abaqus was not able to identify any chains of constraints that might 
 lead to an overconstraint at this node. This suggests that the model might be 
 in fact insufficiently constrained in this particular degree of freedom. 
 Please check the constraints used in this model. 


 ***WARNING: SOLVER PROBLEM.  ZERO PIVOT WHEN PROCESSING NODE 5860 INSTANCE 
             NDBR15 D.O.F. 11
  Typically a zero pivot is associated with an overconstraint in the model. 
 However, Abaqus was not able to identify any chains of constraints that might 
 lead to an overconstraint at this node. This suggests that the model might be 
 in fact insufficiently constrained in this particular degree of freedom. 
 Please check the constraints used in this model. 


 ***WARNING: SOLVER PROBLEM.  ZERO PIVOT WHEN PROCESSING NODE 5918 INSTANCE 
             NDBR15 D.O.F. 11
  Typically a zero pivot is associated with an overconstraint in the model. 
 However, Abaqus was not able to identify any chains of constraints that might 
 lead to an overconstraint at this node. This suggests that the model might be 
 in fact insufficiently constrained in this particular degree of freedom. 
 Please check the constraints used in this model. 


 ***WARNING: SOLVER PROBLEM.  ZERO PIVOT WHEN PROCESSING NODE 5976 INSTANCE 
             NDBR15 D.O.F. 11
  Typically a zero pivot is associated with an overconstraint in the model. 
 However, Abaqus was not able to identify any chains of constraints that might 
 lead to an overconstraint at this node. This suggests that the model might be 
 in fact insufficiently constrained in this particular degree of freedom. 
 Please check the constraints used in this model. 


 ***WARNING: SOLVER PROBLEM.  ZERO PIVOT WHEN PROCESSING NODE 5977 INSTANCE 
             NDBR15 D.O.F. 11
  Typically a zero pivot is associated with an overconstraint in the model. 
 However, Abaqus was not able to identify any chains of constraints that might 
 lead to an overconstraint at this node. This suggests that the model might be 
 in fact insufficiently constrained in this particular degree of freedom. 
 Please check the constraints used in this model. 


 ***WARNING: SOLVER PROBLEM.  ZERO PIVOT WHEN PROCESSING NODE 5861 INSTANCE 
             NDBR15 D.O.F. 11
  Typically a zero pivot is associated with an overconstraint in the model. 
 However, Abaqus was not able to identify any chains of constraints that might 
 lead to an overconstraint at this node. This suggests that the model might be 
 in fact insufficiently constrained in this particular degree of freedom. 
 Please check the constraints used in this model. 


 ***WARNING: SOLVER PROBLEM.  ZERO PIVOT WHEN PROCESSING NODE 5919 INSTANCE 
             NDBR15 D.O.F. 11
  Typically a zero pivot is associated with an overconstraint in the model. 
 However, Abaqus was not able to identify any chains of constraints that might 
 lead to an overconstraint at this node. This suggests that the model might be 
 in fact insufficiently constrained in this particular degree of freedom. 
 Please check the constraints used in this model. 


 ***WARNING: SOLVER PROBLEM.  ZERO PIVOT WHEN PROCESSING NODE 24677 INSTANCE 
             NDBR15 D.O.F. 11
  Typically a zero pivot is associated with an overconstraint in the model. 
 However, Abaqus was not able to identify any chains of constraints that might 
 lead to an overconstraint at this node. This suggests that the model might be 
 in fact insufficiently constrained in this particular degree of freedom. 
 Please check the constraints used in this model. 


 ***WARNING: SOLVER PROBLEM.  ZERO PIVOT WHEN PROCESSING NODE 24676 INSTANCE 
             NDBR15 D.O.F. 11
  Typically a zero pivot is associated with an overconstraint in the model. 
 However, Abaqus was not able to identify any chains of constraints that might 
 lead to an overconstraint at this node. This suggests that the model might be 
 in fact insufficiently constrained in this particular degree of freedom. 
 Please check the constraints used in this model. 


 ***WARNING: SOLVER PROBLEM.  ZERO PIVOT WHEN PROCESSING NODE 5864 INSTANCE 
             NDBR15 D.O.F. 11
  Typically a zero pivot is associated with an overconstraint in the model. 
 However, Abaqus was not able to identify any chains of constraints that might 
 lead to an overconstraint at this node. This suggests that the model might be 
 in fact insufficiently constrained in this particular degree of freedom. 
 Please check the constraints used in this model. 


 ***WARNING: SOLVER PROBLEM.  ZERO PIVOT WHEN PROCESSING NODE 5980 INSTANCE 
             NDBR15 D.O.F. 11
  Typically a zero pivot is associated with an overconstraint in the model. 
 However, Abaqus was not able to identify any chains of constraints that might 
 lead to an overconstraint at this node. This suggests that the model might be 
 in fact insufficiently constrained in this particular degree of freedom. 
 Please check the constraints used in this model. 


 ***WARNING: SOLVER PROBLEM.  ZERO PIVOT WHEN PROCESSING NODE 5922 INSTANCE 
             NDBR15 D.O.F. 11
  Typically a zero pivot is associated with an overconstraint in the model. 
 However, Abaqus was not able to identify any chains of constraints that might 
 lead to an overconstraint at this node. This suggests that the model might be 
 in fact insufficiently constrained in this particular degree of freedom. 
 Please check the constraints used in this model. 


 ***WARNING: SOLVER PROBLEM.  ZERO PIVOT WHEN PROCESSING NODE 24793 INSTANCE 
             NDBR15 D.O.F. 11
  Typically a zero pivot is associated with an overconstraint in the model. 
 However, Abaqus was not able to identify any chains of constraints that might 
 lead to an overconstraint at this node. This suggests that the model might be 
 in fact insufficiently constrained in this particular degree of freedom. 
 Please check the constraints used in this model. 


 ***WARNING: SOLVER PROBLEM.  ZERO PIVOT WHEN PROCESSING NODE 26707 INSTANCE 
             NDBR15 D.O.F. 11
  Typically a zero pivot is associated with an overconstraint in the model. 
 However, Abaqus was not able to identify any chains of constraints that might 
 lead to an overconstraint at this node. This suggests that the model might be 
 in fact insufficiently constrained in this particular degree of freedom. 
 Please check the constraints used in this model. 


 ***WARNING: SOLVER PROBLEM.  ZERO PIVOT WHEN PROCESSING NODE 26649 INSTANCE 
             NDBR15 D.O.F. 11
  Typically a zero pivot is associated with an overconstraint in the model. 
 However, Abaqus was not able to identify any chains of constraints that might 
 lead to an overconstraint at this node. This suggests that the model might be 
 in fact insufficiently constrained in this particular degree of freedom. 
 Please check the constraints used in this model. 


 ***WARNING: SOLVER PROBLEM.  ZERO PIVOT WHEN PROCESSING NODE 24735 INSTANCE 
             NDBR15 D.O.F. 11
  Typically a zero pivot is associated with an overconstraint in the model. 
 However, Abaqus was not able to identify any chains of constraints that might 
 lead to an overconstraint at this node. This suggests that the model might be 
 in fact insufficiently constrained in this particular degree of freedom. 
 Please check the constraints used in this model. 


 ***WARNING: SOLVER PROBLEM.  ZERO PIVOT WHEN PROCESSING NODE 26591 INSTANCE 
             NDBR15 D.O.F. 11
  Typically a zero pivot is associated with an overconstraint in the model. 
 However, Abaqus was not able to identify any chains of constraints that might 
 lead to an overconstraint at this node. This suggests that the model might be 
 in fact insufficiently constrained in this particular degree of freedom. 
 Please check the constraints used in this model. 


 ***WARNING: SOLVER PROBLEM.  ZERO PIVOT WHEN PROCESSING NODE 5979 INSTANCE 
             NDBR15 D.O.F. 11
  Typically a zero pivot is associated with an overconstraint in the model. 
 However, Abaqus was not able to identify any chains of constraints that might 
 lead to an overconstraint at this node. This suggests that the model might be 
 in fact insufficiently constrained in this particular degree of freedom. 
 Please check the constraints used in this model. 


 ***WARNING: SOLVER PROBLEM.  ZERO PIVOT WHEN PROCESSING NODE 5863 INSTANCE 
             NDBR15 D.O.F. 11
  Typically a zero pivot is associated with an overconstraint in the model. 
 However, Abaqus was not able to identify any chains of constraints that might 
 lead to an overconstraint at this node. This suggests that the model might be 
 in fact insufficiently constrained in this particular degree of freedom. 
 Please check the constraints used in this model. 


 ***WARNING: SOLVER PROBLEM.  ZERO PIVOT WHEN PROCESSING NODE 5921 INSTANCE 
             NDBR15 D.O.F. 11
  Typically a zero pivot is associated with an overconstraint in the model. 
 However, Abaqus was not able to identify any chains of constraints that might 
 lead to an overconstraint at this node. This suggests that the model might be 
 in fact insufficiently constrained in this particular degree of freedom. 
 Please check the constraints used in this model. 


 ***WARNING: SOLVER PROBLEM.  ZERO PIVOT WHEN PROCESSING NODE 26590 INSTANCE 
             NDBR15 D.O.F. 11
  Typically a zero pivot is associated with an overconstraint in the model. 
 However, Abaqus was not able to identify any chains of constraints that might 
 lead to an overconstraint at this node. This suggests that the model might be 
 in fact insufficiently constrained in this particular degree of freedom. 
 Please check the constraints used in this model. 


 ***WARNING: SOLVER PROBLEM.  ZERO PIVOT WHEN PROCESSING NODE 24791 INSTANCE 
             NDBR15 D.O.F. 11
  Typically a zero pivot is associated with an overconstraint in the model. 
 However, Abaqus was not able to identify any chains of constraints that might 
 lead to an overconstraint at this node. This suggests that the model might be 
 in fact insufficiently constrained in this particular degree of freedom. 
 Please check the constraints used in this model. 


 ***WARNING: SOLVER PROBLEM.  ZERO PIVOT WHEN PROCESSING NODE 22877 INSTANCE 
             NDBR15 D.O.F. 11
  Typically a zero pivot is associated with an overconstraint in the model. 
 However, Abaqus was not able to identify any chains of constraints that might 
 lead to an overconstraint at this node. This suggests that the model might be 
 in fact insufficiently constrained in this particular degree of freedom. 
 Please check the constraints used in this model. 


 ***WARNING: SOLVER PROBLEM.  ZERO PIVOT WHEN PROCESSING NODE 26705 INSTANCE 
             NDBR15 D.O.F. 11
  Typically a zero pivot is associated with an overconstraint in the model. 
 However, Abaqus was not able to identify any chains of constraints that might 
 lead to an overconstraint at this node. This suggests that the model might be 
 in fact insufficiently constrained in this particular degree of freedom. 
 Please check the constraints used in this model. 


 ***WARNING: SOLVER PROBLEM.  ZERO PIVOT WHEN PROCESSING NODE 24734 INSTANCE 
             NDBR15 D.O.F. 11
  Typically a zero pivot is associated with an overconstraint in the model. 
 However, Abaqus was not able to identify any chains of constraints that might 
 lead to an overconstraint at this node. This suggests that the model might be 
 in fact insufficiently constrained in this particular degree of freedom. 
 Please check the constraints used in this model. 


 ***WARNING: SOLVER PROBLEM.  ZERO PIVOT WHEN PROCESSING NODE 24792 INSTANCE 
             NDBR15 D.O.F. 11
  Typically a zero pivot is associated with an overconstraint in the model. 
 However, Abaqus was not able to identify any chains of constraints that might 
 lead to an overconstraint at this node. This suggests that the model might be 
 in fact insufficiently constrained in this particular degree of freedom. 
 Please check the constraints used in this model. 


 ***WARNING: SOLVER PROBLEM.  ZERO PIVOT WHEN PROCESSING NODE 26648 INSTANCE 
             NDBR15 D.O.F. 11
  Typically a zero pivot is associated with an overconstraint in the model. 
 However, Abaqus was not able to identify any chains of constraints that might 
 lead to an overconstraint at this node. This suggests that the model might be 
 in fact insufficiently constrained in this particular degree of freedom. 
 Please check the constraints used in this model. 


 ***WARNING: SOLVER PROBLEM.  ZERO PIVOT WHEN PROCESSING NODE 26706 INSTANCE 
             NDBR15 D.O.F. 11
  Typically a zero pivot is associated with an overconstraint in the model. 
 However, Abaqus was not able to identify any chains of constraints that might 
 lead to an overconstraint at this node. This suggests that the model might be 
 in fact insufficiently constrained in this particular degree of freedom. 
 Please check the constraints used in this model. 


 ***WARNING: SOLVER PROBLEM.  ZERO PIVOT WHEN PROCESSING NODE 24672 INSTANCE 
             NDBR15 D.O.F. 11
  Typically a zero pivot is associated with an overconstraint in the model. 
 However, Abaqus was not able to identify any chains of constraints that might 
 lead to an overconstraint at this node. This suggests that the model might be 
 in fact insufficiently constrained in this particular degree of freedom. 
 Please check the constraints used in this model. 


 ***WARNING: SOLVER PROBLEM.  ZERO PIVOT WHEN PROCESSING NODE 22758 INSTANCE 
             NDBR15 D.O.F. 11
  Typically a zero pivot is associated with an overconstraint in the model. 
 However, Abaqus was not able to identify any chains of constraints that might 
 lead to an overconstraint at this node. This suggests that the model might be 
 in fact insufficiently constrained in this particular degree of freedom. 
 Please check the constraints used in this model. 


 ***WARNING: SOLVER PROBLEM.  ZERO PIVOT WHEN PROCESSING NODE 24788 INSTANCE 
             NDBR15 D.O.F. 11
  Typically a zero pivot is associated with an overconstraint in the model. 
 However, Abaqus was not able to identify any chains of constraints that might 
 lead to an overconstraint at this node. This suggests that the model might be 
 in fact insufficiently constrained in this particular degree of freedom. 
 Please check the constraints used in this model. 


 ***WARNING: SOLVER PROBLEM.  ZERO PIVOT WHEN PROCESSING NODE 22874 INSTANCE 
             NDBR15 D.O.F. 11
  Typically a zero pivot is associated with an overconstraint in the model. 
 However, Abaqus was not able to identify any chains of constraints that might 
 lead to an overconstraint at this node. This suggests that the model might be 
 in fact insufficiently constrained in this particular degree of freedom. 
 Please check the constraints used in this model. 


 ***WARNING: SOLVER PROBLEM.  ZERO PIVOT WHEN PROCESSING NODE 24730 INSTANCE 
             NDBR15 D.O.F. 11
  Typically a zero pivot is associated with an overconstraint in the model. 
 However, Abaqus was not able to identify any chains of constraints that might 
 lead to an overconstraint at this node. This suggests that the model might be 
 in fact insufficiently constrained in this particular degree of freedom. 
 Please check the constraints used in this model. 


 ***WARNING: SOLVER PROBLEM.  ZERO PIVOT WHEN PROCESSING NODE 22816 INSTANCE 
             NDBR15 D.O.F. 11
  Typically a zero pivot is associated with an overconstraint in the model. 
 However, Abaqus was not able to identify any chains of constraints that might 
 lead to an overconstraint at this node. This suggests that the model might be 
 in fact insufficiently constrained in this particular degree of freedom. 
 Please check the constraints used in this model. 


 ***WARNING: SOLVER PROBLEM.  ZERO PIVOT WHEN PROCESSING NODE 22875 INSTANCE 
             NDBR15 D.O.F. 11
  Typically a zero pivot is associated with an overconstraint in the model. 
 However, Abaqus was not able to identify any chains of constraints that might 
 lead to an overconstraint at this node. This suggests that the model might be 
 in fact insufficiently constrained in this particular degree of freedom. 
 Please check the constraints used in this model. 


 ***WARNING: SOLVER PROBLEM.  ZERO PIVOT WHEN PROCESSING NODE 24789 INSTANCE 
             NDBR15 D.O.F. 11
  Typically a zero pivot is associated with an overconstraint in the model. 
 However, Abaqus was not able to identify any chains of constraints that might 
 lead to an overconstraint at this node. This suggests that the model might be 
 in fact insufficiently constrained in this particular degree of freedom. 
 Please check the constraints used in this model. 


 ***WARNING: SOLVER PROBLEM.  ZERO PIVOT WHEN PROCESSING NODE 24674 INSTANCE 
             NDBR15 D.O.F. 11
  Typically a zero pivot is associated with an overconstraint in the model. 
 However, Abaqus was not able to identify any chains of constraints that might 
 lead to an overconstraint at this node. This suggests that the model might be 
 in fact insufficiently constrained in this particular degree of freedom. 
 Please check the constraints used in this model. 


 ***WARNING: SOLVER PROBLEM.  ZERO PIVOT WHEN PROCESSING NODE 22760 INSTANCE 
             NDBR15 D.O.F. 11
  Typically a zero pivot is associated with an overconstraint in the model. 
 However, Abaqus was not able to identify any chains of constraints that might 
 lead to an overconstraint at this node. This suggests that the model might be 
 in fact insufficiently constrained in this particular degree of freedom. 
 Please check the constraints used in this model. 


 ***WARNING: SOLVER PROBLEM.  ZERO PIVOT WHEN PROCESSING NODE 24731 INSTANCE 
             NDBR15 D.O.F. 11
  Typically a zero pivot is associated with an overconstraint in the model. 
 However, Abaqus was not able to identify any chains of constraints that might 
 lead to an overconstraint at this node. This suggests that the model might be 
 in fact insufficiently constrained in this particular degree of freedom. 
 Please check the constraints used in this model. 


 ***WARNING: SOLVER PROBLEM.  ZERO PIVOT WHEN PROCESSING NODE 22759 INSTANCE 
             NDBR15 D.O.F. 11
  Typically a zero pivot is associated with an overconstraint in the model. 
 However, Abaqus was not able to identify any chains of constraints that might 
 lead to an overconstraint at this node. This suggests that the model might be 
 in fact insufficiently constrained in this particular degree of freedom. 
 Please check the constraints used in this model. 


 ***WARNING: SOLVER PROBLEM.  ZERO PIVOT WHEN PROCESSING NODE 22817 INSTANCE 
             NDBR15 D.O.F. 11
  Typically a zero pivot is associated with an overconstraint in the model. 
 However, Abaqus was not able to identify any chains of constraints that might 
 lead to an overconstraint at this node. This suggests that the model might be 
 in fact insufficiently constrained in this particular degree of freedom. 
 Please check the constraints used in this model. 


 ***WARNING: SOLVER PROBLEM.  ZERO PIVOT WHEN PROCESSING NODE 24673 INSTANCE 
             NDBR15 D.O.F. 11
  Typically a zero pivot is associated with an overconstraint in the model. 
 However, Abaqus was not able to identify any chains of constraints that might 
 lead to an overconstraint at this node. This suggests that the model might be 
 in fact insufficiently constrained in this particular degree of freedom. 
 Please check the constraints used in this model. 


 ***WARNING: SOLVER PROBLEM.  ZERO PIVOT WHEN PROCESSING NODE 24790 INSTANCE 
             NDBR15 D.O.F. 11
  Typically a zero pivot is associated with an overconstraint in the model. 
 However, Abaqus was not able to identify any chains of constraints that might 
 lead to an overconstraint at this node. This suggests that the model might be 
 in fact insufficiently constrained in this particular degree of freedom. 
 Please check the constraints used in this model. 


 ***WARNING: SOLVER PROBLEM.  ZERO PIVOT WHEN PROCESSING NODE 22818 INSTANCE 
             NDBR15 D.O.F. 11
  Typically a zero pivot is associated with an overconstraint in the model. 
 However, Abaqus was not able to identify any chains of constraints that might 
 lead to an overconstraint at this node. This suggests that the model might be 
 in fact insufficiently constrained in this particular degree of freedom. 
 Please check the constraints used in this model. 


 ***WARNING: Solver problem. Zero pivot when processing D.O.F. 11 of 49 nodes. 
             The nodes have been identified in node set 
             WarnNodeSolvProbZeroPiv_11_2_1_1_1.

               CONVERGENCE CHECKS FOR EQUILIBRIUM ITERATION     1


 AVERAGE FORCE                      8.646E-02   TIME AVG. FORCE       8.646E-02
 LARGEST SCALED RESIDUAL FORCE      1.802E-03   AT NODE      40257   DOF  3
   INSTANCE: NDBR15                                                                          
  CORRESPONDING RESIDUAL FORCE      1.802E-03
 LARGEST INCREMENT OF DISP.         1.688E-05   AT NODE      40002   DOF  2
   INSTANCE: NDBR15                                                                          
 LARGEST CORRECTION TO DISP.        1.688E-05   AT NODE      40002   DOF  2
   INSTANCE: NDBR15                                                                          
          FORCE     EQUILIBRIUM NOT ACHIEVED WITHIN TOLERANCE.

 AVERAGE HEAT FLUX                  1.942E-16   TIME AVG. HEAT FLUX   1.000E-02
 LARGEST RESIDUAL HEAT FLUX         2.849E-18   AT NODE      42936   DOF 11
   INSTANCE: NDBR15                                                                          
 LARGEST INCREMENT OF TEMP.         2.818E-04   AT NODE      42936   DOF 11
   INSTANCE: NDBR15                                                                          
 LARGEST CORRECTION TO TEMP.        2.818E-04   AT NODE      42936   DOF 11
   INSTANCE: NDBR15                                                                          
          THERE IS ZERO HEAT FLUX EVERYWHERE
 

 ***WARNING: THERE IS ZERO HEAT FLUX EVERYWHERE IN THE MODEL BASED ON THE 
             DEFAULT CRITERION. PLEASE CHECK THE VALUE OF THE AVERAGE HEAT FLUX 
             DURING THE CURRENT ITERATION TO VERIFY THAT THE HEAT FLUX IS SMALL 
             ENOUGH TO BE TREATED AS ZERO. IF NOT, PLEASE USE THE SOLUTION 
             CONTROLS TO RESET THE CRITERION FOR ZERO HEAT FLUX.
 
	UNSYMMETRIC NEW DIRECT SPARSE SOLVER RUNNING ON
 	1 HOST x 1 MPI RANK PER HOST x 6 THREADS PER RANK
        NUMBER OF EQUATIONS:  172056
        NUMBER OF RHS:        1
        NUMBER OF FLOPS:      2.671e+11
        SOLVER ELAPSED TIME:  1.7s

               CONVERGENCE CHECKS FOR EQUILIBRIUM ITERATION     2


 AVERAGE FORCE                      8.646E-02   TIME AVG. FORCE       8.646E-02
 LARGEST SCALED RESIDUAL FORCE     -2.488E-08   AT NODE      40574   DOF  2
   INSTANCE: NDBR15                                                                          
  CORRESPONDING RESIDUAL FORCE     -2.488E-08
 LARGEST INCREMENT OF DISP.         1.688E-05   AT NODE      40002   DOF  2
   INSTANCE: NDBR15                                                                          
 LARGEST CORRECTION TO DISP.        8.703E-11   AT NODE      40517   DOF  2
   INSTANCE: NDBR15                                                                          
          THE FORCE     EQUILIBRIUM EQUATIONS HAVE CONVERGED

 AVERAGE HEAT FLUX                  1.942E-16   TIME AVG. HEAT FLUX   1.000E-02
 LARGEST RESIDUAL HEAT FLUX        -5.963E-23   AT NODE      41070   DOF 11
   INSTANCE: NDBR15                                                                          
 LARGEST INCREMENT OF TEMP.         2.818E-04   AT NODE      42936   DOF 11
   INSTANCE: NDBR15                                                                          
 LARGEST CORRECTION TO TEMP.        1.986E-08   AT NODE      42574   DOF 11
   INSTANCE: NDBR15                                                                          
          THERE IS ZERO HEAT FLUX EVERYWHERE
 

 ***WARNING: THERE IS ZERO HEAT FLUX EVERYWHERE IN THE MODEL BASED ON THE 
             DEFAULT CRITERION. PLEASE CHECK THE VALUE OF THE AVERAGE HEAT FLUX 
             DURING THE CURRENT ITERATION TO VERIFY THAT THE HEAT FLUX IS SMALL 
             ENOUGH TO BE TREATED AS ZERO. IF NOT, PLEASE USE THE SOLUTION 
             CONTROLS TO RESET THE CRITERION FOR ZERO HEAT FLUX.

 MAXIMUM NON-PRESCRIBED INCREMENT IN TEMPERATURE IS   2.818E-04

 ITERATION SUMMARY FOR THE INCREMENT:   2 TOTAL ITERATIONS, OF WHICH
   0 ARE SEVERE DISCONTINUITY ITERATIONS AND  2 ARE EQUILIBRIUM ITERATIONS.

 TIME INCREMENT COMPLETED   6.75    ,  FRACTION OF STEP COMPLETED  1.000E-02
 STEP TIME COMPLETED        6.75    ,  TOTAL TIME COMPLETED        7.207E+03


  INCREMENT     2 STARTS. ATTEMPT NUMBER  1, TIME INCREMENT   6.75    
 
	UNSYMMETRIC NEW DIRECT SPARSE SOLVER RUNNING ON
 	1 HOST x 1 MPI RANK PER HOST x 6 THREADS PER RANK
        NUMBER OF EQUATIONS:  172056
        NUMBER OF RHS:        1
        NUMBER OF FLOPS:      2.671e+11
        SOLVER ELAPSED TIME:  1.6s

               CONVERGENCE CHECKS FOR EQUILIBRIUM ITERATION     1


 AVERAGE FORCE                      0.182       TIME AVG. FORCE       0.134    
 LARGEST SCALED RESIDUAL FORCE     -5.631E-08   AT NODE      40344   DOF  2
   INSTANCE: NDBR15                                                                          
  CORRESPONDING RESIDUAL FORCE     -5.631E-08
 LARGEST INCREMENT OF DISP.         1.688E-05   AT NODE      40002   DOF  2
   INSTANCE: NDBR15                                                                          
 LARGEST CORRECTION TO DISP.        1.660E-10   AT NODE      40517   DOF  2
   INSTANCE: NDBR15                                                                          
          THE FORCE     EQUILIBRIUM EQUATIONS HAVE CONVERGED

 AVERAGE HEAT FLUX                  1.918E-16   TIME AVG. HEAT FLUX   1.000E-02
 LARGEST RESIDUAL HEAT FLUX        -1.166E-22   AT NODE      41070   DOF 11
   INSTANCE: NDBR15                                                                          
 LARGEST INCREMENT OF TEMP.         2.790E-04   AT NODE      42936   DOF 11
   INSTANCE: NDBR15                                                                          
 LARGEST CORRECTION TO TEMP.       -9.003E-05   AT NODE      37095   DOF 11
   INSTANCE: NDBR15                                                                          
          THERE IS ZERO HEAT FLUX EVERYWHERE
 

 ***WARNING: THERE IS ZERO HEAT FLUX EVERYWHERE IN THE MODEL BASED ON THE 
             DEFAULT CRITERION. PLEASE CHECK THE VALUE OF THE AVERAGE HEAT FLUX 
             DURING THE CURRENT ITERATION TO VERIFY THAT THE HEAT FLUX IS SMALL 
             ENOUGH TO BE TREATED AS ZERO. IF NOT, PLEASE USE THE SOLUTION 
             CONTROLS TO RESET THE CRITERION FOR ZERO HEAT FLUX.

 MAXIMUM NON-PRESCRIBED INCREMENT IN TEMPERATURE IS   2.790E-04

 ITERATION SUMMARY FOR THE INCREMENT:   1 TOTAL ITERATIONS, OF WHICH
   0 ARE SEVERE DISCONTINUITY ITERATIONS AND  1 ARE EQUILIBRIUM ITERATIONS.

 TIME INCREMENT COMPLETED   6.75    ,  FRACTION OF STEP COMPLETED  2.000E-02
 STEP TIME COMPLETED        13.5    ,  TOTAL TIME COMPLETED        7.214E+03


  INCREMENT     3 STARTS. ATTEMPT NUMBER  1, TIME INCREMENT   6.75    
 
	UNSYMMETRIC NEW DIRECT SPARSE SOLVER RUNNING ON
 	1 HOST x 1 MPI RANK PER HOST x 6 THREADS PER RANK
        NUMBER OF EQUATIONS:  172056
        NUMBER OF RHS:        1
        NUMBER OF FLOPS:      2.671e+11
        SOLVER ELAPSED TIME:  1.6s

               CONVERGENCE CHECKS FOR EQUILIBRIUM ITERATION     1


 AVERAGE FORCE                      0.273       TIME AVG. FORCE       0.181    
 LARGEST SCALED RESIDUAL FORCE     -1.004E-07   AT NODE      40344   DOF  2
   INSTANCE: NDBR15                                                                          
  CORRESPONDING RESIDUAL FORCE     -1.004E-07
 LARGEST INCREMENT OF DISP.         1.688E-05   AT NODE      40002   DOF  2
   INSTANCE: NDBR15                                                                          
 LARGEST CORRECTION TO DISP.        1.660E-10   AT NODE      40517   DOF  2
   INSTANCE: NDBR15                                                                          
          THE FORCE     EQUILIBRIUM EQUATIONS HAVE CONVERGED

 AVERAGE HEAT FLUX                  1.902E-16   TIME AVG. HEAT FLUX   1.000E-02
 LARGEST RESIDUAL HEAT FLUX        -1.157E-22   AT NODE      41070   DOF 11
   INSTANCE: NDBR15                                                                          
 LARGEST INCREMENT OF TEMP.         2.763E-04   AT NODE      42936   DOF 11
   INSTANCE: NDBR15                                                                          
 LARGEST CORRECTION TO TEMP.       -8.388E-05   AT NODE      37095   DOF 11
   INSTANCE: NDBR15                                                                          
          THERE IS ZERO HEAT FLUX EVERYWHERE
 

 ***WARNING: THERE IS ZERO HEAT FLUX EVERYWHERE IN THE MODEL BASED ON THE 
             DEFAULT CRITERION. PLEASE CHECK THE VALUE OF THE AVERAGE HEAT FLUX 
             DURING THE CURRENT ITERATION TO VERIFY THAT THE HEAT FLUX IS SMALL 
             ENOUGH TO BE TREATED AS ZERO. IF NOT, PLEASE USE THE SOLUTION 
             CONTROLS TO RESET THE CRITERION FOR ZERO HEAT FLUX.

 MAXIMUM NON-PRESCRIBED INCREMENT IN TEMPERATURE IS   2.763E-04

 ITERATION SUMMARY FOR THE INCREMENT:   1 TOTAL ITERATIONS, OF WHICH
   0 ARE SEVERE DISCONTINUITY ITERATIONS AND  1 ARE EQUILIBRIUM ITERATIONS.

 TIME INCREMENT COMPLETED   6.75    ,  FRACTION OF STEP COMPLETED  3.000E-02
 STEP TIME COMPLETED        20.2    ,  TOTAL TIME COMPLETED        7.220E+03


  INCREMENT     4 STARTS. ATTEMPT NUMBER  1, TIME INCREMENT   6.75    
 
	UNSYMMETRIC NEW DIRECT SPARSE SOLVER RUNNING ON
 	1 HOST x 1 MPI RANK PER HOST x 6 THREADS PER RANK
        NUMBER OF EQUATIONS:  172056
        NUMBER OF RHS:        1
        NUMBER OF FLOPS:      2.671e+11
        SOLVER ELAPSED TIME:  1.5s

               CONVERGENCE CHECKS FOR EQUILIBRIUM ITERATION     1


 AVERAGE FORCE                      0.364       TIME AVG. FORCE       0.227    
 LARGEST SCALED RESIDUAL FORCE     -1.444E-07   AT NODE      40344   DOF  2
   INSTANCE: NDBR15                                                                          
  CORRESPONDING RESIDUAL FORCE     -1.444E-07
 LARGEST INCREMENT OF DISP.         1.688E-05   AT NODE      40002   DOF  2
   INSTANCE: NDBR15                                                                          
 LARGEST CORRECTION TO DISP.        1.660E-10   AT NODE      40517   DOF  2
   INSTANCE: NDBR15                                                                          
          THE FORCE     EQUILIBRIUM EQUATIONS HAVE CONVERGED

 AVERAGE HEAT FLUX                  1.893E-16   TIME AVG. HEAT FLUX   1.000E-02
 LARGEST RESIDUAL HEAT FLUX        -1.143E-22   AT NODE      41004   DOF 11
   INSTANCE: NDBR15                                                                          
 LARGEST INCREMENT OF TEMP.         2.737E-04   AT NODE      42936   DOF 11
   INSTANCE: NDBR15                                                                          
 LARGEST CORRECTION TO TEMP.       -8.051E-05   AT NODE      38049   DOF 11
   INSTANCE: NDBR15                                                                          
          THERE IS ZERO HEAT FLUX EVERYWHERE
 

 ***WARNING: THERE IS ZERO HEAT FLUX EVERYWHERE IN THE MODEL BASED ON THE 
             DEFAULT CRITERION. PLEASE CHECK THE VALUE OF THE AVERAGE HEAT FLUX 
             DURING THE CURRENT ITERATION TO VERIFY THAT THE HEAT FLUX IS SMALL 
             ENOUGH TO BE TREATED AS ZERO. IF NOT, PLEASE USE THE SOLUTION 
             CONTROLS TO RESET THE CRITERION FOR ZERO HEAT FLUX.

 MAXIMUM NON-PRESCRIBED INCREMENT IN TEMPERATURE IS   2.737E-04

 ITERATION SUMMARY FOR THE INCREMENT:   1 TOTAL ITERATIONS, OF WHICH
   0 ARE SEVERE DISCONTINUITY ITERATIONS AND  1 ARE EQUILIBRIUM ITERATIONS.

 TIME INCREMENT COMPLETED   6.75    ,  FRACTION OF STEP COMPLETED  4.000E-02
 STEP TIME COMPLETED        27.0    ,  TOTAL TIME COMPLETED        7.227E+03


  INCREMENT     5 STARTS. ATTEMPT NUMBER  1, TIME INCREMENT   6.75    
 
	UNSYMMETRIC NEW DIRECT SPARSE SOLVER RUNNING ON
 	1 HOST x 1 MPI RANK PER HOST x 6 THREADS PER RANK
        NUMBER OF EQUATIONS:  172056
        NUMBER OF RHS:        1
        NUMBER OF FLOPS:      2.671e+11
        SOLVER ELAPSED TIME:  1.5s

               CONVERGENCE CHECKS FOR EQUILIBRIUM ITERATION     1


 AVERAGE FORCE                      0.456       TIME AVG. FORCE       0.272    
 LARGEST SCALED RESIDUAL FORCE     -1.884E-07   AT NODE      40344   DOF  2
   INSTANCE: NDBR15                                                                          
  CORRESPONDING RESIDUAL FORCE     -1.884E-07
 LARGEST INCREMENT OF DISP.         1.688E-05   AT NODE      40002   DOF  2
   INSTANCE: NDBR15                                                                          
 LARGEST CORRECTION TO DISP.        1.659E-10   AT NODE      40517   DOF  2
   INSTANCE: NDBR15                                                                          
          THE FORCE     EQUILIBRIUM EQUATIONS HAVE CONVERGED

 AVERAGE HEAT FLUX                  1.890E-16   TIME AVG. HEAT FLUX   1.000E-02
 LARGEST RESIDUAL HEAT FLUX        -1.132E-22   AT NODE      41004   DOF 11
   INSTANCE: NDBR15                                                                          
 LARGEST INCREMENT OF TEMP.        -3.055E-04   AT NODE      37095   DOF 11
   INSTANCE: NDBR15                                                                          
 LARGEST CORRECTION TO TEMP.       -7.782E-05   AT NODE      38049   DOF 11
   INSTANCE: NDBR15                                                                          
          THERE IS ZERO HEAT FLUX EVERYWHERE
 

 ***WARNING: THERE IS ZERO HEAT FLUX EVERYWHERE IN THE MODEL BASED ON THE 
             DEFAULT CRITERION. PLEASE CHECK THE VALUE OF THE AVERAGE HEAT FLUX 
             DURING THE CURRENT ITERATION TO VERIFY THAT THE HEAT FLUX IS SMALL 
             ENOUGH TO BE TREATED AS ZERO. IF NOT, PLEASE USE THE SOLUTION 
             CONTROLS TO RESET THE CRITERION FOR ZERO HEAT FLUX.

 MAXIMUM NON-PRESCRIBED INCREMENT IN TEMPERATURE IS  -3.055E-04

 ITERATION SUMMARY FOR THE INCREMENT:   1 TOTAL ITERATIONS, OF WHICH
   0 ARE SEVERE DISCONTINUITY ITERATIONS AND  1 ARE EQUILIBRIUM ITERATIONS.

 TIME INCREMENT COMPLETED   6.75    ,  FRACTION OF STEP COMPLETED  5.000E-02
 STEP TIME COMPLETED        33.8    ,  TOTAL TIME COMPLETED        7.234E+03


  INCREMENT     6 STARTS. ATTEMPT NUMBER  1, TIME INCREMENT   6.75    
 
	UNSYMMETRIC NEW DIRECT SPARSE SOLVER RUNNING ON
 	1 HOST x 1 MPI RANK PER HOST x 6 THREADS PER RANK
        NUMBER OF EQUATIONS:  172056
        NUMBER OF RHS:        1
        NUMBER OF FLOPS:      2.671e+11
        SOLVER ELAPSED TIME:  1.5s

               CONVERGENCE CHECKS FOR EQUILIBRIUM ITERATION     1


 AVERAGE FORCE                      0.547       TIME AVG. FORCE       0.318    
 LARGEST SCALED RESIDUAL FORCE     -2.324E-07   AT NODE      40344   DOF  2
   INSTANCE: NDBR15                                                                          
  CORRESPONDING RESIDUAL FORCE     -2.324E-07
 LARGEST INCREMENT OF DISP.         1.688E-05   AT NODE      40002   DOF  2
   INSTANCE: NDBR15                                                                          
 LARGEST CORRECTION TO DISP.        1.659E-10   AT NODE      40517   DOF  2
   INSTANCE: NDBR15                                                                          
          THE FORCE     EQUILIBRIUM EQUATIONS HAVE CONVERGED

 AVERAGE HEAT FLUX                  1.893E-16   TIME AVG. HEAT FLUX   1.000E-02
 LARGEST RESIDUAL HEAT FLUX        -1.121E-22   AT NODE      41070   DOF 11
   INSTANCE: NDBR15                                                                          
 LARGEST INCREMENT OF TEMP.        -3.752E-04   AT NODE      37095   DOF 11
   INSTANCE: NDBR15                                                                          
 LARGEST CORRECTION TO TEMP.       -7.513E-05   AT NODE      38049   DOF 11
   INSTANCE: NDBR15                                                                          
          THERE IS ZERO HEAT FLUX EVERYWHERE
 

 ***WARNING: THERE IS ZERO HEAT FLUX EVERYWHERE IN THE MODEL BASED ON THE 
             DEFAULT CRITERION. PLEASE CHECK THE VALUE OF THE AVERAGE HEAT FLUX 
             DURING THE CURRENT ITERATION TO VERIFY THAT THE HEAT FLUX IS SMALL 
             ENOUGH TO BE TREATED AS ZERO. IF NOT, PLEASE USE THE SOLUTION 
             CONTROLS TO RESET THE CRITERION FOR ZERO HEAT FLUX.

 MAXIMUM NON-PRESCRIBED INCREMENT IN TEMPERATURE IS  -3.752E-04

 ITERATION SUMMARY FOR THE INCREMENT:   1 TOTAL ITERATIONS, OF WHICH
   0 ARE SEVERE DISCONTINUITY ITERATIONS AND  1 ARE EQUILIBRIUM ITERATIONS.

 TIME INCREMENT COMPLETED   6.75    ,  FRACTION OF STEP COMPLETED  6.000E-02
 STEP TIME COMPLETED        40.5    ,  TOTAL TIME COMPLETED        7.240E+03


  INCREMENT     7 STARTS. ATTEMPT NUMBER  1, TIME INCREMENT   6.75    
 
	UNSYMMETRIC NEW DIRECT SPARSE SOLVER RUNNING ON
 	1 HOST x 1 MPI RANK PER HOST x 6 THREADS PER RANK
        NUMBER OF EQUATIONS:  172056
        NUMBER OF RHS:        1
        NUMBER OF FLOPS:      2.671e+11
        SOLVER ELAPSED TIME:  1.5s

               CONVERGENCE CHECKS FOR EQUILIBRIUM ITERATION     1


 AVERAGE FORCE                      0.638       TIME AVG. FORCE       0.364    
 LARGEST SCALED RESIDUAL FORCE     -2.764E-07   AT NODE      40344   DOF  2
   INSTANCE: NDBR15                                                                          
  CORRESPONDING RESIDUAL FORCE     -2.764E-07
 LARGEST INCREMENT OF DISP.         1.688E-05   AT NODE      40002   DOF  2
   INSTANCE: NDBR15                                                                          
 LARGEST CORRECTION TO DISP.        1.659E-10   AT NODE      40517   DOF  2
   INSTANCE: NDBR15                                                                          
          THE FORCE     EQUILIBRIUM EQUATIONS HAVE CONVERGED

 AVERAGE HEAT FLUX                  1.900E-16   TIME AVG. HEAT FLUX   1.000E-02
 LARGEST RESIDUAL HEAT FLUX        -1.109E-22   AT NODE      41070   DOF 11
   INSTANCE: NDBR15                                                                          
 LARGEST INCREMENT OF TEMP.        -4.461E-04   AT NODE      38049   DOF 11
   INSTANCE: NDBR15                                                                          
 LARGEST CORRECTION TO TEMP.       -7.248E-05   AT NODE      39003   DOF 11
   INSTANCE: NDBR15                                                                          
          THERE IS ZERO HEAT FLUX EVERYWHERE
 

 ***WARNING: THERE IS ZERO HEAT FLUX EVERYWHERE IN THE MODEL BASED ON THE 
             DEFAULT CRITERION. PLEASE CHECK THE VALUE OF THE AVERAGE HEAT FLUX 
             DURING THE CURRENT ITERATION TO VERIFY THAT THE HEAT FLUX IS SMALL 
             ENOUGH TO BE TREATED AS ZERO. IF NOT, PLEASE USE THE SOLUTION 
             CONTROLS TO RESET THE CRITERION FOR ZERO HEAT FLUX.

 MAXIMUM NON-PRESCRIBED INCREMENT IN TEMPERATURE IS  -4.461E-04

 ITERATION SUMMARY FOR THE INCREMENT:   1 TOTAL ITERATIONS, OF WHICH
   0 ARE SEVERE DISCONTINUITY ITERATIONS AND  1 ARE EQUILIBRIUM ITERATIONS.

 TIME INCREMENT COMPLETED   6.75    ,  FRACTION OF STEP COMPLETED  7.000E-02
 STEP TIME COMPLETED        47.2    ,  TOTAL TIME COMPLETED        7.247E+03


  INCREMENT     8 STARTS. ATTEMPT NUMBER  1, TIME INCREMENT   6.75    
 
	UNSYMMETRIC NEW DIRECT SPARSE SOLVER RUNNING ON
 	1 HOST x 1 MPI RANK PER HOST x 6 THREADS PER RANK
        NUMBER OF EQUATIONS:  172056
        NUMBER OF RHS:        1
        NUMBER OF FLOPS:      2.671e+11
        SOLVER ELAPSED TIME:  1.6s

               CONVERGENCE CHECKS FOR EQUILIBRIUM ITERATION     1


 AVERAGE FORCE                      0.729       TIME AVG. FORCE       0.409    
 LARGEST SCALED RESIDUAL FORCE     -3.203E-07   AT NODE      40344   DOF  2
   INSTANCE: NDBR15                                                                          
  CORRESPONDING RESIDUAL FORCE     -3.203E-07
 LARGEST INCREMENT OF DISP.         1.688E-05   AT NODE      40002   DOF  2
   INSTANCE: NDBR15                                                                          
 LARGEST CORRECTION TO DISP.        1.659E-10   AT NODE      40517   DOF  2
   INSTANCE: NDBR15                                                                          
          THE FORCE     EQUILIBRIUM EQUATIONS HAVE CONVERGED

 AVERAGE HEAT FLUX                  1.910E-16   TIME AVG. HEAT FLUX   1.000E-02
 LARGEST RESIDUAL HEAT FLUX        -1.098E-22   AT NODE      41070   DOF 11
   INSTANCE: NDBR15                                                                          
 LARGEST INCREMENT OF TEMP.        -5.160E-04   AT NODE      38049   DOF 11
   INSTANCE: NDBR15                                                                          
 LARGEST CORRECTION TO TEMP.       -7.050E-05   AT NODE      39003   DOF 11
   INSTANCE: NDBR15                                                                          
          THERE IS ZERO HEAT FLUX EVERYWHERE
 

 ***WARNING: THERE IS ZERO HEAT FLUX EVERYWHERE IN THE MODEL BASED ON THE 
             DEFAULT CRITERION. PLEASE CHECK THE VALUE OF THE AVERAGE HEAT FLUX 
             DURING THE CURRENT ITERATION TO VERIFY THAT THE HEAT FLUX IS SMALL 
             ENOUGH TO BE TREATED AS ZERO. IF NOT, PLEASE USE THE SOLUTION 
             CONTROLS TO RESET THE CRITERION FOR ZERO HEAT FLUX.

 MAXIMUM NON-PRESCRIBED INCREMENT IN TEMPERATURE IS  -5.160E-04

 ITERATION SUMMARY FOR THE INCREMENT:   1 TOTAL ITERATIONS, OF WHICH
   0 ARE SEVERE DISCONTINUITY ITERATIONS AND  1 ARE EQUILIBRIUM ITERATIONS.

 TIME INCREMENT COMPLETED   6.75    ,  FRACTION OF STEP COMPLETED  8.000E-02
 STEP TIME COMPLETED        54.0    ,  TOTAL TIME COMPLETED        7.254E+03


  INCREMENT     9 STARTS. ATTEMPT NUMBER  1, TIME INCREMENT   6.75    
 
	UNSYMMETRIC NEW DIRECT SPARSE SOLVER RUNNING ON
 	1 HOST x 1 MPI RANK PER HOST x 6 THREADS PER RANK
        NUMBER OF EQUATIONS:  172056
        NUMBER OF RHS:        1
        NUMBER OF FLOPS:      2.671e+11
        SOLVER ELAPSED TIME:  1.5s

               CONVERGENCE CHECKS FOR EQUILIBRIUM ITERATION     1


 AVERAGE FORCE                      0.820       TIME AVG. FORCE       0.455    
 LARGEST SCALED RESIDUAL FORCE     -3.642E-07   AT NODE      40344   DOF  2
   INSTANCE: NDBR15                                                                          
  CORRESPONDING RESIDUAL FORCE     -3.642E-07
 LARGEST INCREMENT OF DISP.         1.688E-05   AT NODE      40002   DOF  2
   INSTANCE: NDBR15                                                                          
 LARGEST CORRECTION TO DISP.        1.659E-10   AT NODE      40517   DOF  2
   INSTANCE: NDBR15                                                                          
          THE FORCE     EQUILIBRIUM EQUATIONS HAVE CONVERGED

 AVERAGE HEAT FLUX                  1.924E-16   TIME AVG. HEAT FLUX   1.000E-02
 LARGEST RESIDUAL HEAT FLUX        -1.085E-22   AT NODE      41070   DOF 11
   INSTANCE: NDBR15                                                                          
 LARGEST INCREMENT OF TEMP.        -5.833E-04   AT NODE      38049   DOF 11
   INSTANCE: NDBR15                                                                          
 LARGEST CORRECTION TO TEMP.       -6.854E-05   AT NODE      39003   DOF 11
   INSTANCE: NDBR15                                                                          
          THERE IS ZERO HEAT FLUX EVERYWHERE
 

 ***WARNING: THERE IS ZERO HEAT FLUX EVERYWHERE IN THE MODEL BASED ON THE 
             DEFAULT CRITERION. PLEASE CHECK THE VALUE OF THE AVERAGE HEAT FLUX 
             DURING THE CURRENT ITERATION TO VERIFY THAT THE HEAT FLUX IS SMALL 
             ENOUGH TO BE TREATED AS ZERO. IF NOT, PLEASE USE THE SOLUTION 
             CONTROLS TO RESET THE CRITERION FOR ZERO HEAT FLUX.

 MAXIMUM NON-PRESCRIBED INCREMENT IN TEMPERATURE IS  -5.833E-04

 ITERATION SUMMARY FOR THE INCREMENT:   1 TOTAL ITERATIONS, OF WHICH
   0 ARE SEVERE DISCONTINUITY ITERATIONS AND  1 ARE EQUILIBRIUM ITERATIONS.

 TIME INCREMENT COMPLETED   6.75    ,  FRACTION OF STEP COMPLETED  9.000E-02
 STEP TIME COMPLETED        60.8    ,  TOTAL TIME COMPLETED        7.261E+03


  INCREMENT    10 STARTS. ATTEMPT NUMBER  1, TIME INCREMENT   6.75    
 
	UNSYMMETRIC NEW DIRECT SPARSE SOLVER RUNNING ON
 	1 HOST x 1 MPI RANK PER HOST x 6 THREADS PER RANK
        NUMBER OF EQUATIONS:  172056
        NUMBER OF RHS:        1
        NUMBER OF FLOPS:      2.671e+11
        SOLVER ELAPSED TIME:  1.5s

               CONVERGENCE CHECKS FOR EQUILIBRIUM ITERATION     1


 AVERAGE FORCE                      0.911       TIME AVG. FORCE       0.501    
 LARGEST SCALED RESIDUAL FORCE     -4.081E-07   AT NODE      40344   DOF  2
   INSTANCE: NDBR15                                                                          
  CORRESPONDING RESIDUAL FORCE     -4.081E-07
 LARGEST INCREMENT OF DISP.         1.688E-05   AT NODE      40002   DOF  2
   INSTANCE: NDBR15                                                                          
 LARGEST CORRECTION TO DISP.        1.659E-10   AT NODE      40517   DOF  2
   INSTANCE: NDBR15                                                                          
          THE FORCE     EQUILIBRIUM EQUATIONS HAVE CONVERGED

 AVERAGE HEAT FLUX                  1.941E-16   TIME AVG. HEAT FLUX   1.000E-02
 LARGEST RESIDUAL HEAT FLUX        -1.073E-22   AT NODE      41004   DOF 11
   INSTANCE: NDBR15                                                                          
 LARGEST INCREMENT OF TEMP.        -6.483E-04   AT NODE      38049   DOF 11
   INSTANCE: NDBR15                                                                          
 LARGEST CORRECTION TO TEMP.       -6.668E-05   AT NODE      13532   DOF 11
   INSTANCE: NDBR15                                                                          
          THERE IS ZERO HEAT FLUX EVERYWHERE
 

 ***WARNING: THERE IS ZERO HEAT FLUX EVERYWHERE IN THE MODEL BASED ON THE 
             DEFAULT CRITERION. PLEASE CHECK THE VALUE OF THE AVERAGE HEAT FLUX 
             DURING THE CURRENT ITERATION TO VERIFY THAT THE HEAT FLUX IS SMALL 
             ENOUGH TO BE TREATED AS ZERO. IF NOT, PLEASE USE THE SOLUTION 
             CONTROLS TO RESET THE CRITERION FOR ZERO HEAT FLUX.

 MAXIMUM NON-PRESCRIBED INCREMENT IN TEMPERATURE IS  -6.483E-04

 ITERATION SUMMARY FOR THE INCREMENT:   1 TOTAL ITERATIONS, OF WHICH
   0 ARE SEVERE DISCONTINUITY ITERATIONS AND  1 ARE EQUILIBRIUM ITERATIONS.

 TIME INCREMENT COMPLETED   6.75    ,  FRACTION OF STEP COMPLETED  0.100    
 STEP TIME COMPLETED        67.5    ,  TOTAL TIME COMPLETED        7.268E+03


  INCREMENT    11 STARTS. ATTEMPT NUMBER  1, TIME INCREMENT   6.75    
 
	UNSYMMETRIC NEW DIRECT SPARSE SOLVER RUNNING ON
 	1 HOST x 1 MPI RANK PER HOST x 6 THREADS PER RANK
        NUMBER OF EQUATIONS:  172056
        NUMBER OF RHS:        1
        NUMBER OF FLOPS:      2.671e+11
        SOLVER ELAPSED TIME:  1.7s

               CONVERGENCE CHECKS FOR EQUILIBRIUM ITERATION     1


 AVERAGE FORCE                       1.00       TIME AVG. FORCE       0.546    
 LARGEST SCALED RESIDUAL FORCE     -4.520E-07   AT NODE      40344   DOF  2
   INSTANCE: NDBR15                                                                          
  CORRESPONDING RESIDUAL FORCE     -4.520E-07
 LARGEST INCREMENT OF DISP.         1.688E-05   AT NODE      40002   DOF  2
   INSTANCE: NDBR15                                                                          
 LARGEST CORRECTION TO DISP.        1.658E-10   AT NODE      40517   DOF  2
   INSTANCE: NDBR15                                                                          
          THE FORCE     EQUILIBRIUM EQUATIONS HAVE CONVERGED

 AVERAGE HEAT FLUX                  1.960E-16   TIME AVG. HEAT FLUX   1.000E-02
 LARGEST RESIDUAL HEAT FLUX        -1.139E-22   AT NODE      40930   DOF 11
   INSTANCE: NDBR15                                                                          
 LARGEST INCREMENT OF TEMP.        -7.108E-04   AT NODE      38049   DOF 11
   INSTANCE: NDBR15                                                                          
 LARGEST CORRECTION TO TEMP.       -6.491E-05   AT NODE      13532   DOF 11
   INSTANCE: NDBR15                                                                          
          THERE IS ZERO HEAT FLUX EVERYWHERE
 

 ***WARNING: THERE IS ZERO HEAT FLUX EVERYWHERE IN THE MODEL BASED ON THE 
             DEFAULT CRITERION. PLEASE CHECK THE VALUE OF THE AVERAGE HEAT FLUX 
             DURING THE CURRENT ITERATION TO VERIFY THAT THE HEAT FLUX IS SMALL 
             ENOUGH TO BE TREATED AS ZERO. IF NOT, PLEASE USE THE SOLUTION 
             CONTROLS TO RESET THE CRITERION FOR ZERO HEAT FLUX.

 MAXIMUM NON-PRESCRIBED INCREMENT IN TEMPERATURE IS  -7.108E-04

 ITERATION SUMMARY FOR THE INCREMENT:   1 TOTAL ITERATIONS, OF WHICH
   0 ARE SEVERE DISCONTINUITY ITERATIONS AND  1 ARE EQUILIBRIUM ITERATIONS.

 TIME INCREMENT COMPLETED   6.75    ,  FRACTION OF STEP COMPLETED  0.110    
 STEP TIME COMPLETED        74.2    ,  TOTAL TIME COMPLETED        7.274E+03


  INCREMENT    12 STARTS. ATTEMPT NUMBER  1, TIME INCREMENT   6.75    
 
	UNSYMMETRIC NEW DIRECT SPARSE SOLVER RUNNING ON
 	1 HOST x 1 MPI RANK PER HOST x 6 THREADS PER RANK
        NUMBER OF EQUATIONS:  172056
        NUMBER OF RHS:        1
        NUMBER OF FLOPS:      2.671e+11
        SOLVER ELAPSED TIME:  1.5s

               CONVERGENCE CHECKS FOR EQUILIBRIUM ITERATION     1


 AVERAGE FORCE                       1.09       TIME AVG. FORCE       0.592    
 LARGEST SCALED RESIDUAL FORCE     -4.959E-07   AT NODE      40344   DOF  2
   INSTANCE: NDBR15                                                                          
  CORRESPONDING RESIDUAL FORCE     -4.959E-07
 LARGEST INCREMENT OF DISP.         1.688E-05   AT NODE      40002   DOF  2
   INSTANCE: NDBR15                                                                          
 LARGEST CORRECTION TO DISP.        1.658E-10   AT NODE      40517   DOF  2
   INSTANCE: NDBR15                                                                          
          THE FORCE     EQUILIBRIUM EQUATIONS HAVE CONVERGED

 AVERAGE HEAT FLUX                  1.982E-16   TIME AVG. HEAT FLUX   1.000E-02
 LARGEST RESIDUAL HEAT FLUX         1.240E-22   AT NODE      40775   DOF 11
   INSTANCE: NDBR15                                                                          
 LARGEST INCREMENT OF TEMP.        -7.711E-04   AT NODE      38049   DOF 11
   INSTANCE: NDBR15                                                                          
 LARGEST CORRECTION TO TEMP.       -6.316E-05   AT NODE      13532   DOF 11
   INSTANCE: NDBR15                                                                          
          THERE IS ZERO HEAT FLUX EVERYWHERE
 

 ***WARNING: THERE IS ZERO HEAT FLUX EVERYWHERE IN THE MODEL BASED ON THE 
             DEFAULT CRITERION. PLEASE CHECK THE VALUE OF THE AVERAGE HEAT FLUX 
             DURING THE CURRENT ITERATION TO VERIFY THAT THE HEAT FLUX IS SMALL 
             ENOUGH TO BE TREATED AS ZERO. IF NOT, PLEASE USE THE SOLUTION 
             CONTROLS TO RESET THE CRITERION FOR ZERO HEAT FLUX.

 MAXIMUM NON-PRESCRIBED INCREMENT IN TEMPERATURE IS  -7.711E-04

 ITERATION SUMMARY FOR THE INCREMENT:   1 TOTAL ITERATIONS, OF WHICH
   0 ARE SEVERE DISCONTINUITY ITERATIONS AND  1 ARE EQUILIBRIUM ITERATIONS.

 TIME INCREMENT COMPLETED   6.75    ,  FRACTION OF STEP COMPLETED  0.120    
 STEP TIME COMPLETED        81.0    ,  TOTAL TIME COMPLETED        7.281E+03


  INCREMENT    13 STARTS. ATTEMPT NUMBER  1, TIME INCREMENT   6.75    
 
	UNSYMMETRIC NEW DIRECT SPARSE SOLVER RUNNING ON
 	1 HOST x 1 MPI RANK PER HOST x 6 THREADS PER RANK
        NUMBER OF EQUATIONS:  172056
        NUMBER OF RHS:        1
        NUMBER OF FLOPS:      2.671e+11
        SOLVER ELAPSED TIME:  1.5s

               CONVERGENCE CHECKS FOR EQUILIBRIUM ITERATION     1


 AVERAGE FORCE                       1.18       TIME AVG. FORCE       0.637    
 LARGEST SCALED RESIDUAL FORCE     -5.397E-07   AT NODE      40344   DOF  2
   INSTANCE: NDBR15                                                                          
  CORRESPONDING RESIDUAL FORCE     -5.397E-07
 LARGEST INCREMENT OF DISP.         1.688E-05   AT NODE      40002   DOF  2
   INSTANCE: NDBR15                                                                          
 LARGEST CORRECTION TO DISP.        1.658E-10   AT NODE      40517   DOF  2
   INSTANCE: NDBR15                                                                          
          THE FORCE     EQUILIBRIUM EQUATIONS HAVE CONVERGED

 AVERAGE HEAT FLUX                  2.004E-16   TIME AVG. HEAT FLUX   1.000E-02
 LARGEST RESIDUAL HEAT FLUX         1.401E-22   AT NODE      40775   DOF 11
   INSTANCE: NDBR15                                                                          
 LARGEST INCREMENT OF TEMP.        -8.293E-04   AT NODE      38049   DOF 11
   INSTANCE: NDBR15                                                                          
 LARGEST CORRECTION TO TEMP.       -6.143E-05   AT NODE      13532   DOF 11
   INSTANCE: NDBR15                                                                          
          THERE IS ZERO HEAT FLUX EVERYWHERE
 

 ***WARNING: THERE IS ZERO HEAT FLUX EVERYWHERE IN THE MODEL BASED ON THE 
             DEFAULT CRITERION. PLEASE CHECK THE VALUE OF THE AVERAGE HEAT FLUX 
             DURING THE CURRENT ITERATION TO VERIFY THAT THE HEAT FLUX IS SMALL 
             ENOUGH TO BE TREATED AS ZERO. IF NOT, PLEASE USE THE SOLUTION 
             CONTROLS TO RESET THE CRITERION FOR ZERO HEAT FLUX.

 MAXIMUM NON-PRESCRIBED INCREMENT IN TEMPERATURE IS  -8.293E-04

 ITERATION SUMMARY FOR THE INCREMENT:   1 TOTAL ITERATIONS, OF WHICH
   0 ARE SEVERE DISCONTINUITY ITERATIONS AND  1 ARE EQUILIBRIUM ITERATIONS.

 TIME INCREMENT COMPLETED   6.75    ,  FRACTION OF STEP COMPLETED  0.130    
 STEP TIME COMPLETED        87.8    ,  TOTAL TIME COMPLETED        7.288E+03


  INCREMENT    14 STARTS. ATTEMPT NUMBER  1, TIME INCREMENT   6.75    
 
	UNSYMMETRIC NEW DIRECT SPARSE SOLVER RUNNING ON
 	1 HOST x 1 MPI RANK PER HOST x 6 THREADS PER RANK
        NUMBER OF EQUATIONS:  172056
        NUMBER OF RHS:        1
        NUMBER OF FLOPS:      2.671e+11
[...]
 LARGEST CORRECTION TO DISP.        8.133E-09   AT NODE       7331   DOF  2
   INSTANCE: NDBR15                                                                          
          THE FORCE     EQUILIBRIUM EQUATIONS HAVE CONVERGED

 AVERAGE HEAT FLUX                  1.549E-15   TIME AVG. HEAT FLUX   1.000E-02
 LARGEST RESIDUAL HEAT FLUX        -3.278E-17   AT NODE      27944   DOF 11
   INSTANCE: NDBR15                                                                          
 LARGEST INCREMENT OF TEMP.         8.788E-02   AT NODE      14807   DOF 11
   INSTANCE: NDBR15                                                                          
 LARGEST CORRECTION TO TEMP.       -2.047E-04   AT NODE      10201   DOF 11
   INSTANCE: NDBR15                                                                          
          THERE IS ZERO HEAT FLUX EVERYWHERE
 

 ***WARNING: THERE IS ZERO HEAT FLUX EVERYWHERE IN THE MODEL BASED ON THE 
             DEFAULT CRITERION. PLEASE CHECK THE VALUE OF THE AVERAGE HEAT FLUX 
             DURING THE CURRENT ITERATION TO VERIFY THAT THE HEAT FLUX IS SMALL 
             ENOUGH TO BE TREATED AS ZERO. IF NOT, PLEASE USE THE SOLUTION 
             CONTROLS TO RESET THE CRITERION FOR ZERO HEAT FLUX.

 MAXIMUM NON-PRESCRIBED INCREMENT IN TEMPERATURE IS   8.788E-02

 ITERATION SUMMARY FOR THE INCREMENT:   4 TOTAL ITERATIONS, OF WHICH
   0 ARE SEVERE DISCONTINUITY ITERATIONS AND  4 ARE EQUILIBRIUM ITERATIONS.

 TIME INCREMENT COMPLETED   6.75    ,  FRACTION OF STEP COMPLETED  0.980    
 STEP TIME COMPLETED        662.    ,  TOTAL TIME COMPLETED        7.862E+03


  INCREMENT   101 STARTS. ATTEMPT NUMBER  1, TIME INCREMENT   6.75    
 
	UNSYMMETRIC NEW DIRECT SPARSE SOLVER RUNNING ON
 	1 HOST x 1 MPI RANK PER HOST x 6 THREADS PER RANK
        NUMBER OF EQUATIONS:  172056
        NUMBER OF RHS:        1
        NUMBER OF FLOPS:      2.671e+11
        SOLVER ELAPSED TIME:  1.5s

               CONVERGENCE CHECKS FOR EQUILIBRIUM ITERATION     1


 AVERAGE FORCE                       3.22       TIME AVG. FORCE        3.06    
 LARGEST SCALED RESIDUAL FORCE     -0.507       AT NODE      26209   DOF  2
   INSTANCE: NDBR15                                                                          
  CORRESPONDING RESIDUAL FORCE     -0.507    
 LARGEST INCREMENT OF DISP.         2.311E-05   AT NODE      32639   DOF  2
   INSTANCE: NDBR15                                                                          
 LARGEST CORRECTION TO DISP.       -1.230E-06   AT NODE      10378   DOF  1
   INSTANCE: NDBR15                                                                          
          FORCE     EQUILIBRIUM NOT ACHIEVED WITHIN TOLERANCE.

 AVERAGE HEAT FLUX                  1.542E-15   TIME AVG. HEAT FLUX   1.000E-02
 LARGEST RESIDUAL HEAT FLUX         1.368E-14   AT NODE      30331   DOF 11
   INSTANCE: NDBR15                                                                          
 LARGEST INCREMENT OF TEMP.         8.627E-02   AT NODE      14807   DOF 11
   INSTANCE: NDBR15                                                                          
 LARGEST CORRECTION TO TEMP.        9.096E-02   AT NODE      10100   DOF 11
   INSTANCE: NDBR15                                                                          
          THERE IS ZERO HEAT FLUX EVERYWHERE
 

 ***WARNING: THERE IS ZERO HEAT FLUX EVERYWHERE IN THE MODEL BASED ON THE 
             DEFAULT CRITERION. PLEASE CHECK THE VALUE OF THE AVERAGE HEAT FLUX 
             DURING THE CURRENT ITERATION TO VERIFY THAT THE HEAT FLUX IS SMALL 
             ENOUGH TO BE TREATED AS ZERO. IF NOT, PLEASE USE THE SOLUTION 
             CONTROLS TO RESET THE CRITERION FOR ZERO HEAT FLUX.
 
	UNSYMMETRIC NEW DIRECT SPARSE SOLVER RUNNING ON
 	1 HOST x 1 MPI RANK PER HOST x 6 THREADS PER RANK
        NUMBER OF EQUATIONS:  172056
        NUMBER OF RHS:        1
        NUMBER OF FLOPS:      2.671e+11
        SOLVER ELAPSED TIME:  1.6s

               CONVERGENCE CHECKS FOR EQUILIBRIUM ITERATION     2


 AVERAGE FORCE                       3.22       TIME AVG. FORCE        3.06    
 LARGEST SCALED RESIDUAL FORCE      7.114E-02   AT NODE       7741   DOF  2
   INSTANCE: NDBR15                                                                          
  CORRESPONDING RESIDUAL FORCE      7.114E-02
 LARGEST INCREMENT OF DISP.         2.280E-05   AT NODE      10495   DOF  2
   INSTANCE: NDBR15                                                                          
 LARGEST CORRECTION TO DISP.       -3.832E-07   AT NODE       7436   DOF  2
   INSTANCE: NDBR15                                                                          
          FORCE     EQUILIBRIUM NOT ACHIEVED WITHIN TOLERANCE.

 AVERAGE HEAT FLUX                  1.542E-15   TIME AVG. HEAT FLUX   1.000E-02
 LARGEST RESIDUAL HEAT FLUX        -7.794E-15   AT NODE      25963   DOF 11
   INSTANCE: NDBR15                                                                          
 LARGEST INCREMENT OF TEMP.         8.634E-02   AT NODE      14807   DOF 11
   INSTANCE: NDBR15                                                                          
 LARGEST CORRECTION TO TEMP.        1.696E-02   AT NODE      30331   DOF 11
   INSTANCE: NDBR15                                                                          
          THERE IS ZERO HEAT FLUX EVERYWHERE
 

 ***WARNING: THERE IS ZERO HEAT FLUX EVERYWHERE IN THE MODEL BASED ON THE 
             DEFAULT CRITERION. PLEASE CHECK THE VALUE OF THE AVERAGE HEAT FLUX 
             DURING THE CURRENT ITERATION TO VERIFY THAT THE HEAT FLUX IS SMALL 
             ENOUGH TO BE TREATED AS ZERO. IF NOT, PLEASE USE THE SOLUTION 
             CONTROLS TO RESET THE CRITERION FOR ZERO HEAT FLUX.
 
	UNSYMMETRIC NEW DIRECT SPARSE SOLVER RUNNING ON
 	1 HOST x 1 MPI RANK PER HOST x 6 THREADS PER RANK
        NUMBER OF EQUATIONS:  172056
        NUMBER OF RHS:        1
        NUMBER OF FLOPS:      2.671e+11
        SOLVER ELAPSED TIME:  1.6s

               CONVERGENCE CHECKS FOR EQUILIBRIUM ITERATION     3


 AVERAGE FORCE                       3.22       TIME AVG. FORCE        3.06    
 LARGEST SCALED RESIDUAL FORCE      2.254E-02   AT NODE      26028   DOF  2
   INSTANCE: NDBR15                                                                          
  CORRESPONDING RESIDUAL FORCE      2.254E-02
 LARGEST INCREMENT OF DISP.         2.280E-05   AT NODE      10495   DOF  2
   INSTANCE: NDBR15                                                                          
 LARGEST CORRECTION TO DISP.        3.462E-08   AT NODE      11836   DOF  1
   INSTANCE: NDBR15                                                                          
          FORCE     EQUILIBRIUM NOT ACHIEVED WITHIN TOLERANCE.

 AVERAGE HEAT FLUX                  1.541E-15   TIME AVG. HEAT FLUX   1.000E-02
 LARGEST RESIDUAL HEAT FLUX         1.086E-16   AT NODE      30385   DOF 11
   INSTANCE: NDBR15                                                                          
 LARGEST INCREMENT OF TEMP.         8.636E-02   AT NODE      14807   DOF 11
   INSTANCE: NDBR15                                                                          
 LARGEST CORRECTION TO TEMP.       -9.700E-03   AT NODE      32412   DOF 11
   INSTANCE: NDBR15                                                                          
          THERE IS ZERO HEAT FLUX EVERYWHERE
 

 ***WARNING: THERE IS ZERO HEAT FLUX EVERYWHERE IN THE MODEL BASED ON THE 
             DEFAULT CRITERION. PLEASE CHECK THE VALUE OF THE AVERAGE HEAT FLUX 
             DURING THE CURRENT ITERATION TO VERIFY THAT THE HEAT FLUX IS SMALL 
             ENOUGH TO BE TREATED AS ZERO. IF NOT, PLEASE USE THE SOLUTION 
             CONTROLS TO RESET THE CRITERION FOR ZERO HEAT FLUX.
 
	UNSYMMETRIC NEW DIRECT SPARSE SOLVER RUNNING ON
 	1 HOST x 1 MPI RANK PER HOST x 6 THREADS PER RANK
        NUMBER OF EQUATIONS:  172056
        NUMBER OF RHS:        1
        NUMBER OF FLOPS:      2.671e+11
        SOLVER ELAPSED TIME:  1.6s

               CONVERGENCE CHECKS FOR EQUILIBRIUM ITERATION     4


 AVERAGE FORCE                       3.22       TIME AVG. FORCE        3.06    
 LARGEST SCALED RESIDUAL FORCE     -4.323E-03   AT NODE      34319   DOF  3
   INSTANCE: NDBR15                                                                          
  CORRESPONDING RESIDUAL FORCE     -4.323E-03
 LARGEST INCREMENT OF DISP.         2.280E-05   AT NODE      10495   DOF  2
   INSTANCE: NDBR15                                                                          
 LARGEST CORRECTION TO DISP.        5.647E-09   AT NODE       7389   DOF  2
   INSTANCE: NDBR15                                                                          
          THE FORCE     EQUILIBRIUM EQUATIONS HAVE CONVERGED

 AVERAGE HEAT FLUX                  1.541E-15   TIME AVG. HEAT FLUX   1.000E-02
 LARGEST RESIDUAL HEAT FLUX        -2.602E-17   AT NODE      27942   DOF 11
   INSTANCE: NDBR15                                                                          
 LARGEST INCREMENT OF TEMP.         8.636E-02   AT NODE      14807   DOF 11
   INSTANCE: NDBR15                                                                          
 LARGEST CORRECTION TO TEMP.       -1.782E-04   AT NODE      34202   DOF 11
   INSTANCE: NDBR15                                                                          
          THERE IS ZERO HEAT FLUX EVERYWHERE
 

 ***WARNING: THERE IS ZERO HEAT FLUX EVERYWHERE IN THE MODEL BASED ON THE 
             DEFAULT CRITERION. PLEASE CHECK THE VALUE OF THE AVERAGE HEAT FLUX 
             DURING THE CURRENT ITERATION TO VERIFY THAT THE HEAT FLUX IS SMALL 
             ENOUGH TO BE TREATED AS ZERO. IF NOT, PLEASE USE THE SOLUTION 
             CONTROLS TO RESET THE CRITERION FOR ZERO HEAT FLUX.

 MAXIMUM NON-PRESCRIBED INCREMENT IN TEMPERATURE IS   8.636E-02

 ITERATION SUMMARY FOR THE INCREMENT:   4 TOTAL ITERATIONS, OF WHICH
   0 ARE SEVERE DISCONTINUITY ITERATIONS AND  4 ARE EQUILIBRIUM ITERATIONS.

 TIME INCREMENT COMPLETED   6.75    ,  FRACTION OF STEP COMPLETED  0.990    
 STEP TIME COMPLETED        668.    ,  TOTAL TIME COMPLETED        7.868E+03


  INCREMENT   102 STARTS. ATTEMPT NUMBER  1, TIME INCREMENT   6.75    
 
	UNSYMMETRIC NEW DIRECT SPARSE SOLVER RUNNING ON
 	1 HOST x 1 MPI RANK PER HOST x 6 THREADS PER RANK
        NUMBER OF EQUATIONS:  172056
        NUMBER OF RHS:        1
        NUMBER OF FLOPS:      2.671e+11
        SOLVER ELAPSED TIME:  1.6s

               CONVERGENCE CHECKS FOR EQUILIBRIUM ITERATION     1


 AVERAGE FORCE                       3.17       TIME AVG. FORCE        3.06    
 LARGEST SCALED RESIDUAL FORCE     -0.439       AT NODE      26266   DOF  2
   INSTANCE: NDBR15                                                                          
  CORRESPONDING RESIDUAL FORCE     -0.439    
 LARGEST INCREMENT OF DISP.         2.332E-05   AT NODE      14983   DOF  2
   INSTANCE: NDBR15                                                                          
 LARGEST CORRECTION TO DISP.       -1.322E-06   AT NODE      15010   DOF  1
   INSTANCE: NDBR15                                                                          
          FORCE     EQUILIBRIUM NOT ACHIEVED WITHIN TOLERANCE.

 AVERAGE HEAT FLUX                  1.532E-15   TIME AVG. HEAT FLUX   1.000E-02
 LARGEST RESIDUAL HEAT FLUX         1.502E-14   AT NODE      27824   DOF 11
   INSTANCE: NDBR15                                                                          
 LARGEST INCREMENT OF TEMP.         8.437E-02   AT NODE      14807   DOF 11
   INSTANCE: NDBR15                                                                          
 LARGEST CORRECTION TO TEMP.        7.458E-02   AT NODE      30442   DOF 11
   INSTANCE: NDBR15                                                                          
          THERE IS ZERO HEAT FLUX EVERYWHERE
 

 ***WARNING: THERE IS ZERO HEAT FLUX EVERYWHERE IN THE MODEL BASED ON THE 
             DEFAULT CRITERION. PLEASE CHECK THE VALUE OF THE AVERAGE HEAT FLUX 
             DURING THE CURRENT ITERATION TO VERIFY THAT THE HEAT FLUX IS SMALL 
             ENOUGH TO BE TREATED AS ZERO. IF NOT, PLEASE USE THE SOLUTION 
             CONTROLS TO RESET THE CRITERION FOR ZERO HEAT FLUX.
 
	UNSYMMETRIC NEW DIRECT SPARSE SOLVER RUNNING ON
 	1 HOST x 1 MPI RANK PER HOST x 6 THREADS PER RANK
        NUMBER OF EQUATIONS:  172056
        NUMBER OF RHS:        1
        NUMBER OF FLOPS:      2.671e+11
        SOLVER ELAPSED TIME:  1.6s

               CONVERGENCE CHECKS FOR EQUILIBRIUM ITERATION     2


 AVERAGE FORCE                       3.17       TIME AVG. FORCE        3.06    
 LARGEST SCALED RESIDUAL FORCE      5.681E-02   AT NODE      32067   DOF  2
   INSTANCE: NDBR15                                                                          
  CORRESPONDING RESIDUAL FORCE      5.681E-02
 LARGEST INCREMENT OF DISP.         2.298E-05   AT NODE      10438   DOF  2
   INSTANCE: NDBR15                                                                          
 LARGEST CORRECTION TO DISP.       -3.874E-07   AT NODE       7380   DOF  2
   INSTANCE: NDBR15                                                                          
          FORCE     EQUILIBRIUM NOT ACHIEVED WITHIN TOLERANCE.

 AVERAGE HEAT FLUX                  1.532E-15   TIME AVG. HEAT FLUX   1.000E-02
 LARGEST RESIDUAL HEAT FLUX        -1.424E-14   AT NODE      22304   DOF 11
   INSTANCE: NDBR15                                                                          
 LARGEST INCREMENT OF TEMP.         8.445E-02   AT NODE      14807   DOF 11
   INSTANCE: NDBR15                                                                          
 LARGEST CORRECTION TO TEMP.        1.768E-02   AT NODE      27824   DOF 11
   INSTANCE: NDBR15                                                                          
          THERE IS ZERO HEAT FLUX EVERYWHERE
 

 ***WARNING: THERE IS ZERO HEAT FLUX EVERYWHERE IN THE MODEL BASED ON THE 
             DEFAULT CRITERION. PLEASE CHECK THE VALUE OF THE AVERAGE HEAT FLUX 
             DURING THE CURRENT ITERATION TO VERIFY THAT THE HEAT FLUX IS SMALL 
             ENOUGH TO BE TREATED AS ZERO. IF NOT, PLEASE USE THE SOLUTION 
             CONTROLS TO RESET THE CRITERION FOR ZERO HEAT FLUX.
 
	UNSYMMETRIC NEW DIRECT SPARSE SOLVER RUNNING ON
 	1 HOST x 1 MPI RANK PER HOST x 6 THREADS PER RANK
        NUMBER OF EQUATIONS:  172056
        NUMBER OF RHS:        1
        NUMBER OF FLOPS:      2.671e+11
        SOLVER ELAPSED TIME:  1.5s

               CONVERGENCE CHECKS FOR EQUILIBRIUM ITERATION     3


 AVERAGE FORCE                       3.17       TIME AVG. FORCE        3.06    
 LARGEST SCALED RESIDUAL FORCE     -1.642E-02   AT NODE      34026   DOF  2
   INSTANCE: NDBR15                                                                          
  CORRESPONDING RESIDUAL FORCE     -1.642E-02
 LARGEST INCREMENT OF DISP.         2.298E-05   AT NODE      10438   DOF  2
   INSTANCE: NDBR15                                                                          
 LARGEST CORRECTION TO DISP.       -3.403E-08   AT NODE      14845   DOF  1
   INSTANCE: NDBR15                                                                          
          FORCE     EQUILIBRIUM NOT ACHIEVED WITHIN TOLERANCE.

 AVERAGE HEAT FLUX                  1.532E-15   TIME AVG. HEAT FLUX   1.000E-02
 LARGEST RESIDUAL HEAT FLUX        -7.458E-15   AT NODE      28415   DOF 11
   INSTANCE: NDBR15                                                                          
 LARGEST INCREMENT OF TEMP.         8.447E-02   AT NODE      14807   DOF 11
   INSTANCE: NDBR15                                                                          
 LARGEST CORRECTION TO TEMP.       -1.730E-02   AT NODE      10099   DOF 11
   INSTANCE: NDBR15                                                                          
          THERE IS ZERO HEAT FLUX EVERYWHERE
 

 ***WARNING: THERE IS ZERO HEAT FLUX EVERYWHERE IN THE MODEL BASED ON THE 
             DEFAULT CRITERION. PLEASE CHECK THE VALUE OF THE AVERAGE HEAT FLUX 
             DURING THE CURRENT ITERATION TO VERIFY THAT THE HEAT FLUX IS SMALL 
             ENOUGH TO BE TREATED AS ZERO. IF NOT, PLEASE USE THE SOLUTION 
             CONTROLS TO RESET THE CRITERION FOR ZERO HEAT FLUX.
 
	UNSYMMETRIC NEW DIRECT SPARSE SOLVER RUNNING ON
 	1 HOST x 1 MPI RANK PER HOST x 6 THREADS PER RANK
        NUMBER OF EQUATIONS:  172056
        NUMBER OF RHS:        1
        NUMBER OF FLOPS:      2.671e+11
        SOLVER ELAPSED TIME:  1.6s

               CONVERGENCE CHECKS FOR EQUILIBRIUM ITERATION     4


 AVERAGE FORCE                       3.17       TIME AVG. FORCE        3.06    
 LARGEST SCALED RESIDUAL FORCE     -3.678E-03   AT NODE      34203   DOF  2
   INSTANCE: NDBR15                                                                          
  CORRESPONDING RESIDUAL FORCE     -3.678E-03
 LARGEST INCREMENT OF DISP.         2.298E-05   AT NODE      10438   DOF  2
   INSTANCE: NDBR15                                                                          
 LARGEST CORRECTION TO DISP.       -4.018E-09   AT NODE       9971   DOF  2
   INSTANCE: NDBR15                                                                          
          THE FORCE     EQUILIBRIUM EQUATIONS HAVE CONVERGED

 AVERAGE HEAT FLUX                  1.532E-15   TIME AVG. HEAT FLUX   1.000E-02
 LARGEST RESIDUAL HEAT FLUX         4.364E-17   AT NODE      28415   DOF 11
   INSTANCE: NDBR15                                                                          
 LARGEST INCREMENT OF TEMP.         8.447E-02   AT NODE      14807   DOF 11
   INSTANCE: NDBR15                                                                          
 LARGEST CORRECTION TO TEMP.       -8.948E-03   AT NODE      28415   DOF 11
   INSTANCE: NDBR15                                                                          
          THERE IS ZERO HEAT FLUX EVERYWHERE
 

 ***WARNING: THERE IS ZERO HEAT FLUX EVERYWHERE IN THE MODEL BASED ON THE 
             DEFAULT CRITERION. PLEASE CHECK THE VALUE OF THE AVERAGE HEAT FLUX 
             DURING THE CURRENT ITERATION TO VERIFY THAT THE HEAT FLUX IS SMALL 
             ENOUGH TO BE TREATED AS ZERO. IF NOT, PLEASE USE THE SOLUTION 
             CONTROLS TO RESET THE CRITERION FOR ZERO HEAT FLUX.

 MAXIMUM NON-PRESCRIBED INCREMENT IN TEMPERATURE IS   8.447E-02

 ITERATION SUMMARY FOR THE INCREMENT:   4 TOTAL ITERATIONS, OF WHICH
   0 ARE SEVERE DISCONTINUITY ITERATIONS AND  4 ARE EQUILIBRIUM ITERATIONS.

 TIME INCREMENT COMPLETED   6.75    ,  FRACTION OF STEP COMPLETED   1.00    
 STEP TIME COMPLETED        675.    ,  TOTAL TIME COMPLETED        7.875E+03


          THE ANALYSIS HAS BEEN COMPLETED



     ANALYSIS SUMMARY:
     TOTAL OF        107  INCREMENTS
                       0  CUTBACKS IN AUTOMATIC INCREMENTATION
                     219  ITERATIONS INCLUDING CONTACT ITERATIONS IF PRESENT
                     219  PASSES THROUGH THE EQUATION SOLVER OF WHICH 
                     219  INVOLVE MATRIX DECOMPOSITION, INCLUDING
                       0  DECOMPOSITION(S) OF THE MASS MATRIX
                       1  REORDERING OF EQUATIONS TO MINIMIZE WAVEFRONT
                       0  ADDITIONAL RESIDUAL EVALUATIONS FOR LINE SEARCHES
                       0  ADDITIONAL OPERATOR EVALUATIONS FOR LINE SEARCHES
                       6  WARNING MESSAGES DURING USER INPUT PROCESSING
                 6616654  WARNING MESSAGES DURING ANALYSIS
                 6616435  ANALYSIS WARNINGS ARE NUMERICAL PROBLEM MESSAGES
                       0  ANALYSIS WARNINGS ARE NEGATIVE EIGENVALUE MESSAGES
                       0  ERROR MESSAGES



     JOB TIME SUMMARY
       USER TIME (SEC)      =     1.89E+03
       SYSTEM TIME (SEC)    =     1.80E+02
       TOTAL CPU TIME (SEC) =     2.07E+03
       WALLCLOCK TIME (SEC) =         1006
       MEMORY PEAK (GB)     =            1
