1

   Abaqus 2023.HF4                                  Date 29-Oct-2024   Time 12:22:51
   For use by AALTO UNIVERSITY under license from Dassault Systemes or its subsidiary.

                                                                                 
                                                                                 
 STEP    1     INCREMENT     1     STEP TIME    0.00    


                        S T E P       1     C O U P L E D - T E M P E R A T U R E - D I S P L A C E M E N T   A N A L Y S I S


                                                                                          

          FIXED TIME INCREMENTS
          TIME INCREMENT IS                                    1.440E+03
          TIME PERIOD IS                                       7.200E+03

          CREEP AND SWELLING EFFECTS ARE OMITTED IN THIS STEP
          THE RATE DEPENDENCY WILL BE CONSIDERED IN THIS STEP

          CREEP AND SWELLING EFFECTS WILL BE IGNORED.

 CONVERGENCE TOLERANCE PARAMETERS FOR FORCE    
     CRITERION FOR RESIDUAL FORCE     FOR A NONLINEAR PROBLEM          5.000E-03
     CRITERION FOR DISP.    CORRECTION IN A NONLINEAR PROBLEM          1.000E-02
     INITIAL VALUE OF TIME AVERAGE FORCE                               1.000E-02
     AVERAGE FORCE     IS TIME AVERAGE FORCE    
     ALTERNATE CRIT. FOR RESIDUAL FORCE     FOR A NONLINEAR PROBLEM    2.000E-02
     CRITERION FOR ZERO FORCE     RELATIVE TO TIME AVRG. FORCE         1.000E-05
     CRITERION FOR RESIDUAL FORCE     WHEN THERE IS ZERO FLUX          1.000E-05
     CRITERION FOR DISP.    CORRECTION WHEN THERE IS ZERO FLUX         1.000E-03
     CRITERION FOR RESIDUAL FORCE     FOR A LINEAR INCREMENT           1.000E-08
     FIELD CONVERSION RATIO                                             1.00    
     CRITERION FOR ZERO FORCE     REL. TO TIME AVRG. MAX. FORCE        1.000E-05
     CRITERION FOR ZERO DISP.    RELATIVE TO CHARACTERISTIC LENGTH     1.000E-08

 CONVERGENCE TOLERANCE PARAMETERS FOR HEAT FLUX
     CRITERION FOR RESIDUAL HEAT FLUX FOR A NONLINEAR PROBLEM          5.000E-03
     CRITERION FOR TEMP.    CORRECTION IN A NONLINEAR PROBLEM          1.000E-02
     INITIAL VALUE OF TIME AVERAGE HEAT FLUX                           1.000E-02
     AVERAGE HEAT FLUX IS TIME AVERAGE HEAT FLUX
     ALTERNATE CRIT. FOR RESIDUAL HEAT FLUX FOR A NONLINEAR PROBLEM    2.000E-02
     CRITERION FOR ZERO HEAT FLUX RELATIVE TO TIME AVRG. HEAT FLUX     1.000E-05
     CRITERION FOR RESIDUAL HEAT FLUX WHEN THERE IS ZERO FLUX          1.000E-05
     CRITERION FOR TEMP.    CORRECTION WHEN THERE IS ZERO FLUX         1.000E-03
     CRITERION FOR RESIDUAL HEAT FLUX FOR A LINEAR INCREMENT           1.000E-08
     FIELD CONVERSION RATIO                                             1.00    
     CRITERION FOR ZERO HEAT FLUX REL. TO TIME AVRG. MAX. HEAT FLUX    1.000E-05

     VOLUMETRIC STRAIN COMPATIBILITY TOLERANCE FOR HYBRID SOLIDS       1.000E-05
     AXIAL STRAIN COMPATIBILITY TOLERANCE FOR HYBRID BEAMS             1.000E-05
     TRANS. SHEAR STRAIN COMPATIBILITY TOLERANCE FOR HYBRID BEAMS      1.000E-05
     SOFT CONTACT CONSTRAINT COMPATIBILITY TOLERANCE FOR P>P0          5.000E-03
     SOFT CONTACT CONSTRAINT COMPATIBILITY TOLERANCE FOR P=0.0         0.100    
     CONTACT FORCE ERROR TOLERANCE FOR CONVERT SDI=YES                 1.00    
     DISPLACEMENT COMPATIBILITY TOLERANCE FOR DCOUP ELEMENTS           1.000E-05
     ROTATION COMPATIBILITY TOLERANCE FOR DCOUP ELEMENTS               1.000E-05

 EQUILIBRIUM WILL BE CHECKED FOR SEVERE DISCONTINUITY ITERATIONS

 ITERATION CONTROL PARAMETERS:
     FIRST EQUILIBRIUM ITERATION FOR CONSECUTIVE DIVERGENCE CHECK              4
     EQUILIBRIUM ITERATION AFTER WHICH ALTERNATE RESIDUAL IS USED              9
     MAXIMUM EQUILIBRIUM ITERATIONS ALLOWED                                   16
     MAXIMUM ITERATIONS FOR SEVERE DISCONTINUITIES                            12
     GLOBAL STABILIZATION CONTROL IS NOT USED

          PRINT OF INCREMENT NUMBER, TIME, ETC., EVERY    1  INCREMENTS

     THE MAXIMUM NUMBER OF INCREMENTS IN THIS STEP IS                 1000000

          LARGE DISPLACEMENT THEORY WILL BE USED

          UNSYMMETRIC MATRIX STORAGE AND SOLUTION WILL BE USED

     LINEAR EXTRAPOLATION WILL BE USED

     CHARACTERISTIC ELEMENT LENGTH     2.513E-04

     DETAILS REGARDING ACTUAL SOLUTION WAVEFRONT REQUESTED

     DETAILED OUTPUT OF DIAGNOSTICS TO DATABASE REQUESTED

     PRINT OF INCREMENT NUMBER, TIME, ETC., TO THE MESSAGE FILE EVERY     1  INCREMENTS

     ELEMENT OPERATIONS WILL BE CARRIED OUT IN PARALLEL USING   6 THREADS ON 1 DOMAIN

     PARALLEL CONTACT TRACKING ENABLED


     COLLECTING MODEL CONSTRAINT INFORMATION FOR OVERCONSTRAINT CHECKS

     COLLECTING STEP CONSTRAINT INFORMATION FOR OVERCONSTRAINT CHECKS


  INCREMENT     1 STARTS. ATTEMPT NUMBER  1, TIME INCREMENT  1.440E+03
 
     INITIAL ELEMENT LOAD BALANCE
            DOMAIN    1     THREAD    NUMBER OF ELEMENTS
                              1            5592
                              2            5677
                              3            5488
                              4            5656
                              5            5712
                              6            5672
 
	UNSYMMETRIC NEW DIRECT SPARSE SOLVER RUNNING ON
 	1 HOST x 1 MPI RANK PER HOST x 6 THREADS PER RANK
        NUMBER OF EQUATIONS:  168120
        NUMBER OF RHS:        1
        NUMBER OF FLOPS:      2.693e+11
        SOLVER ELAPSED TIME:  4.6s

               CONVERGENCE CHECKS FOR EQUILIBRIUM ITERATION     1


 AVERAGE FORCE                       0.00       TIME AVG. FORCE       1.000E-02
 ALL FORCE     RESIDUALS ARE ZERO
 ALL DISP.    INCREMENTS ARE ZERO
 ALL CORRECTION TO DISP.    ARE ZERO
          THERE IS ZERO FORCE     EVERYWHERE

 AVERAGE HEAT FLUX                  8.786E-14   TIME AVG. HEAT FLUX   1.000E-02
 LARGEST RESIDUAL HEAT FLUX         1.334E-15   AT NODE      40131   DOF 11
   INSTANCE: NDBR40-M-1                                                                      
 LARGEST INCREMENT OF TEMP.          8.72       AT NODE          1   DOF 11
   INSTANCE: NDBR40-M-1                                                                      
 LARGEST CORRECTION TO TEMP.         8.72       AT NODE          1   DOF 11
   INSTANCE: NDBR40-M-1                                                                      
          THERE IS ZERO HEAT FLUX EVERYWHERE
 

 ***WARNING: THERE IS ZERO HEAT FLUX EVERYWHERE IN THE MODEL BASED ON THE 
             DEFAULT CRITERION. PLEASE CHECK THE VALUE OF THE AVERAGE HEAT FLUX 
             DURING THE CURRENT ITERATION TO VERIFY THAT THE HEAT FLUX IS SMALL 
             ENOUGH TO BE TREATED AS ZERO. IF NOT, PLEASE USE THE SOLUTION 
             CONTROLS TO RESET THE CRITERION FOR ZERO HEAT FLUX.

 ITERATION SUMMARY FOR THE INCREMENT:   1 TOTAL ITERATIONS, OF WHICH
   0 ARE SEVERE DISCONTINUITY ITERATIONS AND  1 ARE EQUILIBRIUM ITERATIONS.

 TIME INCREMENT COMPLETED  1.440E+03,  FRACTION OF STEP COMPLETED  0.200    
 STEP TIME COMPLETED       1.440E+03,  TOTAL TIME COMPLETED        1.440E+03


  INCREMENT     2 STARTS. ATTEMPT NUMBER  1, TIME INCREMENT  1.440E+03
 
	UNSYMMETRIC NEW DIRECT SPARSE SOLVER RUNNING ON
 	1 HOST x 1 MPI RANK PER HOST x 6 THREADS PER RANK
        NUMBER OF EQUATIONS:  168120
        NUMBER OF RHS:        1
        NUMBER OF FLOPS:      2.693e+11
        SOLVER ELAPSED TIME:  15s

               CONVERGENCE CHECKS FOR EQUILIBRIUM ITERATION     1


 AVERAGE FORCE                       0.00       TIME AVG. FORCE       1.000E-02
 ALL FORCE     RESIDUALS ARE ZERO
 ALL DISP.    INCREMENTS ARE ZERO
 ALL CORRECTION TO DISP.    ARE ZERO
          THERE IS ZERO FORCE     EVERYWHERE

 AVERAGE HEAT FLUX                  1.713E-14   TIME AVG. HEAT FLUX   1.000E-02
 LARGEST RESIDUAL HEAT FLUX        -2.069E-16   AT NODE      40142   DOF 11
   INSTANCE: NDBR40-M-1                                                                      
 LARGEST INCREMENT OF TEMP.          1.94       AT NODE        283   DOF 11
   INSTANCE: NDBR40-M-1                                                                      
 LARGEST CORRECTION TO TEMP.        -8.72       AT NODE          1   DOF 11
   INSTANCE: NDBR40-M-1                                                                      
          THERE IS ZERO HEAT FLUX EVERYWHERE
 

 ***WARNING: THERE IS ZERO HEAT FLUX EVERYWHERE IN THE MODEL BASED ON THE 
             DEFAULT CRITERION. PLEASE CHECK THE VALUE OF THE AVERAGE HEAT FLUX 
             DURING THE CURRENT ITERATION TO VERIFY THAT THE HEAT FLUX IS SMALL 
             ENOUGH TO BE TREATED AS ZERO. IF NOT, PLEASE USE THE SOLUTION 
             CONTROLS TO RESET THE CRITERION FOR ZERO HEAT FLUX.

 ITERATION SUMMARY FOR THE INCREMENT:   1 TOTAL ITERATIONS, OF WHICH
   0 ARE SEVERE DISCONTINUITY ITERATIONS AND  1 ARE EQUILIBRIUM ITERATIONS.

 TIME INCREMENT COMPLETED  1.440E+03,  FRACTION OF STEP COMPLETED  0.400    
 STEP TIME COMPLETED       2.880E+03,  TOTAL TIME COMPLETED        2.880E+03


  INCREMENT     3 STARTS. ATTEMPT NUMBER  1, TIME INCREMENT  1.440E+03
 
	UNSYMMETRIC NEW DIRECT SPARSE SOLVER RUNNING ON
 	1 HOST x 1 MPI RANK PER HOST x 6 THREADS PER RANK
        NUMBER OF EQUATIONS:  168120
        NUMBER OF RHS:        1
        NUMBER OF FLOPS:      2.693e+11
        SOLVER ELAPSED TIME:  4.7s

               CONVERGENCE CHECKS FOR EQUILIBRIUM ITERATION     1


 AVERAGE FORCE                       0.00       TIME AVG. FORCE       1.000E-02
 ALL FORCE     RESIDUALS ARE ZERO
 ALL DISP.    INCREMENTS ARE ZERO
 ALL CORRECTION TO DISP.    ARE ZERO
          THERE IS ZERO FORCE     EVERYWHERE

 AVERAGE HEAT FLUX                  3.855E-15   TIME AVG. HEAT FLUX   1.000E-02
 LARGEST RESIDUAL HEAT FLUX        -1.048E-17   AT NODE      40145   DOF 11
   INSTANCE: NDBR40-M-1                                                                      
 LARGEST INCREMENT OF TEMP.         0.544       AT NODE      41954   DOF 11
   INSTANCE: NDBR40-M-1                                                                      
 LARGEST CORRECTION TO TEMP.        -1.42       AT NODE         34   DOF 11
   INSTANCE: NDBR40-M-1                                                                      
          THERE IS ZERO HEAT FLUX EVERYWHERE
 

 ***WARNING: THERE IS ZERO HEAT FLUX EVERYWHERE IN THE MODEL BASED ON THE 
             DEFAULT CRITERION. PLEASE CHECK THE VALUE OF THE AVERAGE HEAT FLUX 
             DURING THE CURRENT ITERATION TO VERIFY THAT THE HEAT FLUX IS SMALL 
             ENOUGH TO BE TREATED AS ZERO. IF NOT, PLEASE USE THE SOLUTION 
             CONTROLS TO RESET THE CRITERION FOR ZERO HEAT FLUX.

 ITERATION SUMMARY FOR THE INCREMENT:   1 TOTAL ITERATIONS, OF WHICH
   0 ARE SEVERE DISCONTINUITY ITERATIONS AND  1 ARE EQUILIBRIUM ITERATIONS.

 TIME INCREMENT COMPLETED  1.440E+03,  FRACTION OF STEP COMPLETED  0.600    
 STEP TIME COMPLETED       4.320E+03,  TOTAL TIME COMPLETED        4.320E+03


  INCREMENT     4 STARTS. ATTEMPT NUMBER  1, TIME INCREMENT  1.440E+03
 
	UNSYMMETRIC NEW DIRECT SPARSE SOLVER RUNNING ON
 	1 HOST x 1 MPI RANK PER HOST x 6 THREADS PER RANK
        NUMBER OF EQUATIONS:  168120
        NUMBER OF RHS:        1
        NUMBER OF FLOPS:      2.693e+11
        SOLVER ELAPSED TIME:  4.7s

               CONVERGENCE CHECKS FOR EQUILIBRIUM ITERATION     1


 AVERAGE FORCE                       0.00       TIME AVG. FORCE       1.000E-02
 ALL FORCE     RESIDUALS ARE ZERO
 ALL DISP.    INCREMENTS ARE ZERO
 ALL CORRECTION TO DISP.    ARE ZERO
          THERE IS ZERO FORCE     EVERYWHERE

 AVERAGE HEAT FLUX                  8.730E-16   TIME AVG. HEAT FLUX   1.000E-02
 LARGEST RESIDUAL HEAT FLUX        -6.485E-19   AT NODE      40142   DOF 11
   INSTANCE: NDBR40-M-1                                                                      
 LARGEST INCREMENT OF TEMP.         0.157       AT NODE      41971   DOF 11
   INSTANCE: NDBR40-M-1                                                                      
 LARGEST CORRECTION TO TEMP.       -0.387       AT NODE      41954   DOF 11
   INSTANCE: NDBR40-M-1                                                                      
          THERE IS ZERO HEAT FLUX EVERYWHERE
 

 ***WARNING: THERE IS ZERO HEAT FLUX EVERYWHERE IN THE MODEL BASED ON THE 
             DEFAULT CRITERION. PLEASE CHECK THE VALUE OF THE AVERAGE HEAT FLUX 
             DURING THE CURRENT ITERATION TO VERIFY THAT THE HEAT FLUX IS SMALL 
             ENOUGH TO BE TREATED AS ZERO. IF NOT, PLEASE USE THE SOLUTION 
             CONTROLS TO RESET THE CRITERION FOR ZERO HEAT FLUX.

 ITERATION SUMMARY FOR THE INCREMENT:   1 TOTAL ITERATIONS, OF WHICH
   0 ARE SEVERE DISCONTINUITY ITERATIONS AND  1 ARE EQUILIBRIUM ITERATIONS.

 TIME INCREMENT COMPLETED  1.440E+03,  FRACTION OF STEP COMPLETED  0.800    
 STEP TIME COMPLETED       5.760E+03,  TOTAL TIME COMPLETED        5.760E+03


  INCREMENT     5 STARTS. ATTEMPT NUMBER  1, TIME INCREMENT  1.440E+03
 
	UNSYMMETRIC NEW DIRECT SPARSE SOLVER RUNNING ON
 	1 HOST x 1 MPI RANK PER HOST x 6 THREADS PER RANK
        NUMBER OF EQUATIONS:  168120
        NUMBER OF RHS:        1
        NUMBER OF FLOPS:      2.693e+11
        SOLVER ELAPSED TIME:  5.0s

               CONVERGENCE CHECKS FOR EQUILIBRIUM ITERATION     1


 AVERAGE FORCE                       0.00       TIME AVG. FORCE       1.000E-02
 ALL FORCE     RESIDUALS ARE ZERO
 ALL DISP.    INCREMENTS ARE ZERO
 ALL CORRECTION TO DISP.    ARE ZERO
          THERE IS ZERO FORCE     EVERYWHERE

 AVERAGE HEAT FLUX                  1.997E-16   TIME AVG. HEAT FLUX   1.000E-02
 LARGEST RESIDUAL HEAT FLUX        -4.377E-20   AT NODE      41796   DOF 11
   INSTANCE: NDBR40-M-1                                                                      
 LARGEST INCREMENT OF TEMP.         4.594E-02   AT NODE      41971   DOF 11
   INSTANCE: NDBR40-M-1                                                                      
 LARGEST CORRECTION TO TEMP.       -0.111       AT NODE      41954   DOF 11
   INSTANCE: NDBR40-M-1                                                                      
          THERE IS ZERO HEAT FLUX EVERYWHERE
 

 ***WARNING: THERE IS ZERO HEAT FLUX EVERYWHERE IN THE MODEL BASED ON THE 
             DEFAULT CRITERION. PLEASE CHECK THE VALUE OF THE AVERAGE HEAT FLUX 
             DURING THE CURRENT ITERATION TO VERIFY THAT THE HEAT FLUX IS SMALL 
             ENOUGH TO BE TREATED AS ZERO. IF NOT, PLEASE USE THE SOLUTION 
             CONTROLS TO RESET THE CRITERION FOR ZERO HEAT FLUX.

 ITERATION SUMMARY FOR THE INCREMENT:   1 TOTAL ITERATIONS, OF WHICH
   0 ARE SEVERE DISCONTINUITY ITERATIONS AND  1 ARE EQUILIBRIUM ITERATIONS.

 TIME INCREMENT COMPLETED  1.440E+03,  FRACTION OF STEP COMPLETED   1.00    
 STEP TIME COMPLETED       7.200E+03,  TOTAL TIME COMPLETED        7.200E+03
1

   Abaqus 2023.HF4                                  Date 29-Oct-2024   Time 12:23:40
   For use by AALTO UNIVERSITY under license from Dassault Systemes or its subsidiary.

                                                                                 
                                                                                 
 STEP    2     INCREMENT     1     STEP TIME    0.00    


                        S T E P       2     C O U P L E D - T E M P E R A T U R E - D I S P L A C E M E N T   A N A L Y S I S


                                                                                          

     AUTOMATIC TIME CONTROL WITH -
          A SUGGESTED INITIAL TIME INCREMENT OF                 8.00    
          AND A TOTAL TIME PERIOD OF                            800.    
          THE MINIMUM TIME INCREMENT ALLOWED IS                1.000E-07
          THE MAXIMUM TIME INCREMENT ALLOWED IS                 8.00    

          CREEP AND SWELLING EFFECTS ARE OMITTED IN THIS STEP

     THE SIZE OF THE TIME INCREMENT IS CONTROLLED BY -
          THE TEMPERATURE CHANGE PER INCREMENT NOT EXCEEDING           1.000E+03
          THE RATE DEPENDENCY WILL BE CONSIDERED IN THIS STEP

          CREEP AND SWELLING EFFECTS WILL BE IGNORED.

 CONVERGENCE TOLERANCE PARAMETERS FOR FORCE    
     CRITERION FOR RESIDUAL FORCE     FOR A NONLINEAR PROBLEM          5.000E-03
     CRITERION FOR DISP.    CORRECTION IN A NONLINEAR PROBLEM          1.000E-02
     INIT. VALUE OF TIME AVG. FORCE     IS TIME AVG. FORCE     IN PREVIOUS STEP
     AVERAGE FORCE     IS TIME AVERAGE FORCE    
     ALTERNATE CRIT. FOR RESIDUAL FORCE     FOR A NONLINEAR PROBLEM    2.000E-02
     CRITERION FOR ZERO FORCE     RELATIVE TO TIME AVRG. FORCE         1.000E-05
     CRITERION FOR RESIDUAL FORCE     WHEN THERE IS ZERO FLUX          1.000E-05
     CRITERION FOR DISP.    CORRECTION WHEN THERE IS ZERO FLUX         1.000E-03
     CRITERION FOR RESIDUAL FORCE     FOR A LINEAR INCREMENT           1.000E-08
     FIELD CONVERSION RATIO                                             1.00    
     CRITERION FOR ZERO FORCE     REL. TO TIME AVRG. MAX. FORCE        1.000E-05
     CRITERION FOR ZERO DISP.    RELATIVE TO CHARACTERISTIC LENGTH     1.000E-08

 CONVERGENCE TOLERANCE PARAMETERS FOR HEAT FLUX
     CRITERION FOR RESIDUAL HEAT FLUX FOR A NONLINEAR PROBLEM          5.000E-03
     CRITERION FOR TEMP.    CORRECTION IN A NONLINEAR PROBLEM          1.000E-02
     INIT. VALUE OF TIME AVG. HEAT FLUX IS TIME AVG. HEAT FLUX IN PREVIOUS STEP
     AVERAGE HEAT FLUX IS TIME AVERAGE HEAT FLUX
     ALTERNATE CRIT. FOR RESIDUAL HEAT FLUX FOR A NONLINEAR PROBLEM    2.000E-02
     CRITERION FOR ZERO HEAT FLUX RELATIVE TO TIME AVRG. HEAT FLUX     1.000E-05
     CRITERION FOR RESIDUAL HEAT FLUX WHEN THERE IS ZERO FLUX          1.000E-05
     CRITERION FOR TEMP.    CORRECTION WHEN THERE IS ZERO FLUX         1.000E-03
     CRITERION FOR RESIDUAL HEAT FLUX FOR A LINEAR INCREMENT           1.000E-08
     FIELD CONVERSION RATIO                                             1.00    
     CRITERION FOR ZERO HEAT FLUX REL. TO TIME AVRG. MAX. HEAT FLUX    1.000E-05

     VOLUMETRIC STRAIN COMPATIBILITY TOLERANCE FOR HYBRID SOLIDS       1.000E-05
     AXIAL STRAIN COMPATIBILITY TOLERANCE FOR HYBRID BEAMS             1.000E-05
     TRANS. SHEAR STRAIN COMPATIBILITY TOLERANCE FOR HYBRID BEAMS      1.000E-05
     SOFT CONTACT CONSTRAINT COMPATIBILITY TOLERANCE FOR P>P0          5.000E-03
     SOFT CONTACT CONSTRAINT COMPATIBILITY TOLERANCE FOR P=0.0         0.100    
     CONTACT FORCE ERROR TOLERANCE FOR CONVERT SDI=YES                 1.00    
     DISPLACEMENT COMPATIBILITY TOLERANCE FOR DCOUP ELEMENTS           1.000E-05
     ROTATION COMPATIBILITY TOLERANCE FOR DCOUP ELEMENTS               1.000E-05

 EQUILIBRIUM WILL BE CHECKED FOR SEVERE DISCONTINUITY ITERATIONS

 TIME INCREMENTATION CONTROL PARAMETERS:
     FIRST EQUILIBRIUM ITERATION FOR CONSECUTIVE DIVERGENCE CHECK              4
     EQUILIBRIUM ITERATION AT WHICH LOG. CONVERGENCE RATE CHECK BEGINS         8
     EQUILIBRIUM ITERATION AFTER WHICH ALTERNATE RESIDUAL IS USED              9
     MAXIMUM EQUILIBRIUM ITERATIONS ALLOWED                                   16
     EQUILIBRIUM ITERATION COUNT FOR CUT-BACK IN NEXT INCREMENT               10
     MAXIMUM EQUILIB. ITERS IN TWO INCREMENTS FOR TIME INCREMENT INCREASE      4
     MAXIMUM ITERATIONS FOR SEVERE DISCONTINUITIES                            50
     MAXIMUM ATTEMPTS ALLOWED IN AN INCREMENT                                  5
     MAXIMUM DISCON. ITERS IN TWO INCREMENTS FOR TIME INCREMENT INCREASE      50
     MAXIMUM CONTACT AUGMENTATIONS FOR *SURFACE BEHAVIOR,AUGMENTED LAGRANGE   50
     CONSECUTIVE INCS MEETING TIME INTEG. TOL. FOR TIME INC. INCREASE          3
     CUT-BACK FACTOR AFTER DIVERGENCE                                 0.2500    
     CUT-BACK FACTOR FOR TOO SLOW CONVERGENCE                         0.5000    
     CUT-BACK FACTOR AFTER TOO MANY EQUILIBRIUM ITERATIONS            0.7500    
     CUT-BACK FACTOR AFTER TOO MANY SEVERE DISCONTINUITY ITERATIONS   0.2500    
     CUT-BACK FACTOR AFTER PROBLEMS IN ELEMENT ASSEMBLY               0.2500    
     INCREASE FACTOR AFTER TWO INCREMENTS THAT CONVERGE QUICKLY        1.500    
     MAX. TIME INCREMENT INCREASE FACTOR ALLOWED                       1.500    
     MAX. TIME INCREMENT INCREASE FACTOR ALLOWED (DYNAMICS)            1.250    
     MAX. TIME INCREMENT INCREASE FACTOR ALLOWED (DIFFUSION)           2.000    
     MINIMUM TIME INCREMENT RATIO FOR EXTRAPOLATION TO OCCUR          0.1000    
     CUT-BACK FACTOR WHEN TIME INTEGRATION ACCURACY TOL. EXCEEDED     0.8500    
     MAX. RATIO OF TIME INTEG. MEASURE TO TOL. FOR TIME INC. INCREASE 0.7500    
     INCREASE FACTOR FOR TIME INCREMENT WHEN POSSIBLE                 0.8000    
     MIN. TIME INC. INCREASE FACTOR IN LINEAR TRANSIENT PROBLEMS      0.9500    
     MAX. RATIO OF TIME INCREMENT TO STABILITY LIMIT                   1.000    
     FRACTION OF STABILITY LIMIT FOR NEW TIME INCREMENT               0.9500    
     TIME INCREMENT INCREASE FACTOR BEFORE A TIME POINT                1.000    
     GLOBAL STABILIZATION CONTROL IS NOT USED

          PRINT OF INCREMENT NUMBER, TIME, ETC., EVERY    1  INCREMENTS

     THE MAXIMUM NUMBER OF INCREMENTS IN THIS STEP IS                 1000000

          LARGE DISPLACEMENT THEORY WILL BE USED

          UNSYMMETRIC MATRIX STORAGE AND SOLUTION WILL BE USED

     LINEAR EXTRAPOLATION WILL BE USED

     CHARACTERISTIC ELEMENT LENGTH     2.513E-04

     DETAILS REGARDING ACTUAL SOLUTION WAVEFRONT REQUESTED

     DETAILED OUTPUT OF DIAGNOSTICS TO DATABASE REQUESTED

     PRINT OF INCREMENT NUMBER, TIME, ETC., TO THE MESSAGE FILE EVERY     1  INCREMENTS

     ELEMENT OPERATIONS WILL BE CARRIED OUT IN PARALLEL USING   6 THREADS ON 1 DOMAIN

     COLLECTING STEP CONSTRAINT INFORMATION FOR OVERCONSTRAINT CHECKS


  INCREMENT     1 STARTS. ATTEMPT NUMBER  1, TIME INCREMENT   8.00    
 
     INITIAL ELEMENT LOAD BALANCE
            DOMAIN    1     THREAD    NUMBER OF ELEMENTS
                              1            5552
                              2            5688
                              3            5640
                              4            5653
                              5            5560
                              6            5704
 
	UNSYMMETRIC NEW DIRECT SPARSE SOLVER RUNNING ON
 	1 HOST x 1 MPI RANK PER HOST x 6 THREADS PER RANK
        NUMBER OF EQUATIONS:  168120
        NUMBER OF RHS:        1
        NUMBER OF FLOPS:      2.693e+11
        SOLVER ELAPSED TIME:  1.7s

 ***WARNING: SOLVER PROBLEM.  ZERO PIVOT WHEN PROCESSING NODE 18252 INSTANCE 
             NDBR40-M-1 D.O.F. 11
  Typically a zero pivot is associated with an overconstraint in the model. 
 However, Abaqus was not able to identify any chains of constraints that might 
 lead to an overconstraint at this node. This suggests that the model might be 
 in fact insufficiently constrained in this particular degree of freedom. 
 Please check the constraints used in this model. 


 ***WARNING: SOLVER PROBLEM.  ZERO PIVOT WHEN PROCESSING NODE 18253 INSTANCE 
             NDBR40-M-1 D.O.F. 11
  Typically a zero pivot is associated with an overconstraint in the model. 
 However, Abaqus was not able to identify any chains of constraints that might 
 lead to an overconstraint at this node. This suggests that the model might be 
 in fact insufficiently constrained in this particular degree of freedom. 
 Please check the constraints used in this model. 


 ***WARNING: SOLVER PROBLEM.  ZERO PIVOT WHEN PROCESSING NODE 18459 INSTANCE 
             NDBR40-M-1 D.O.F. 11
  Typically a zero pivot is associated with an overconstraint in the model. 
 However, Abaqus was not able to identify any chains of constraints that might 
 lead to an overconstraint at this node. This suggests that the model might be 
 in fact insufficiently constrained in this particular degree of freedom. 
 Please check the constraints used in this model. 


 ***WARNING: SOLVER PROBLEM.  ZERO PIVOT WHEN PROCESSING NODE 18390 INSTANCE 
             NDBR40-M-1 D.O.F. 11
  Typically a zero pivot is associated with an overconstraint in the model. 
 However, Abaqus was not able to identify any chains of constraints that might 
 lead to an overconstraint at this node. This suggests that the model might be 
 in fact insufficiently constrained in this particular degree of freedom. 
 Please check the constraints used in this model. 


 ***WARNING: SOLVER PROBLEM.  ZERO PIVOT WHEN PROCESSING NODE 18321 INSTANCE 
             NDBR40-M-1 D.O.F. 11
  Typically a zero pivot is associated with an overconstraint in the model. 
 However, Abaqus was not able to identify any chains of constraints that might 
 lead to an overconstraint at this node. This suggests that the model might be 
 in fact insufficiently constrained in this particular degree of freedom. 
 Please check the constraints used in this model. 


 ***WARNING: SOLVER PROBLEM.  ZERO PIVOT WHEN PROCESSING NODE 18256 INSTANCE 
             NDBR40-M-1 D.O.F. 11
  Typically a zero pivot is associated with an overconstraint in the model. 
 However, Abaqus was not able to identify any chains of constraints that might 
 lead to an overconstraint at this node. This suggests that the model might be 
 in fact insufficiently constrained in this particular degree of freedom. 
 Please check the constraints used in this model. 


 ***WARNING: SOLVER PROBLEM.  ZERO PIVOT WHEN PROCESSING NODE 18255 INSTANCE 
             NDBR40-M-1 D.O.F. 11
  Typically a zero pivot is associated with an overconstraint in the model. 
 However, Abaqus was not able to identify any chains of constraints that might 
 lead to an overconstraint at this node. This suggests that the model might be 
 in fact insufficiently constrained in this particular degree of freedom. 
 Please check the constraints used in this model. 


 ***WARNING: SOLVER PROBLEM.  ZERO PIVOT WHEN PROCESSING NODE 18463 INSTANCE 
             NDBR40-M-1 D.O.F. 11
  Typically a zero pivot is associated with an overconstraint in the model. 
 However, Abaqus was not able to identify any chains of constraints that might 
 lead to an overconstraint at this node. This suggests that the model might be 
 in fact insufficiently constrained in this particular degree of freedom. 
 Please check the constraints used in this model. 


 ***WARNING: SOLVER PROBLEM.  ZERO PIVOT WHEN PROCESSING NODE 18394 INSTANCE 
             NDBR40-M-1 D.O.F. 11
  Typically a zero pivot is associated with an overconstraint in the model. 
 However, Abaqus was not able to identify any chains of constraints that might 
 lead to an overconstraint at this node. This suggests that the model might be 
 in fact insufficiently constrained in this particular degree of freedom. 
 Please check the constraints used in this model. 


 ***WARNING: SOLVER PROBLEM.  ZERO PIVOT WHEN PROCESSING NODE 18325 INSTANCE 
             NDBR40-M-1 D.O.F. 11
  Typically a zero pivot is associated with an overconstraint in the model. 
 However, Abaqus was not able to identify any chains of constraints that might 
 lead to an overconstraint at this node. This suggests that the model might be 
 in fact insufficiently constrained in this particular degree of freedom. 
 Please check the constraints used in this model. 


 ***WARNING: SOLVER PROBLEM.  ZERO PIVOT WHEN PROCESSING NODE 18254 INSTANCE 
             NDBR40-M-1 D.O.F. 11
  Typically a zero pivot is associated with an overconstraint in the model. 
 However, Abaqus was not able to identify any chains of constraints that might 
 lead to an overconstraint at this node. This suggests that the model might be 
 in fact insufficiently constrained in this particular degree of freedom. 
 Please check the constraints used in this model. 


 ***WARNING: SOLVER PROBLEM.  ZERO PIVOT WHEN PROCESSING NODE 20324 INSTANCE 
             NDBR40-M-1 D.O.F. 11
  Typically a zero pivot is associated with an overconstraint in the model. 
 However, Abaqus was not able to identify any chains of constraints that might 
 lead to an overconstraint at this node. This suggests that the model might be 
 in fact insufficiently constrained in this particular degree of freedom. 
 Please check the constraints used in this model. 


 ***WARNING: SOLVER PROBLEM.  ZERO PIVOT WHEN PROCESSING NODE 20255 INSTANCE 
             NDBR40-M-1 D.O.F. 11
  Typically a zero pivot is associated with an overconstraint in the model. 
 However, Abaqus was not able to identify any chains of constraints that might 
 lead to an overconstraint at this node. This suggests that the model might be 
 in fact insufficiently constrained in this particular degree of freedom. 
 Please check the constraints used in this model. 


 ***WARNING: SOLVER PROBLEM.  ZERO PIVOT WHEN PROCESSING NODE 18460 INSTANCE 
             NDBR40-M-1 D.O.F. 11
  Typically a zero pivot is associated with an overconstraint in the model. 
 However, Abaqus was not able to identify any chains of constraints that might 
 lead to an overconstraint at this node. This suggests that the model might be 
 in fact insufficiently constrained in this particular degree of freedom. 
 Please check the constraints used in this model. 


 ***WARNING: SOLVER PROBLEM.  ZERO PIVOT WHEN PROCESSING NODE 18322 INSTANCE 
             NDBR40-M-1 D.O.F. 11
  Typically a zero pivot is associated with an overconstraint in the model. 
 However, Abaqus was not able to identify any chains of constraints that might 
 lead to an overconstraint at this node. This suggests that the model might be 
 in fact insufficiently constrained in this particular degree of freedom. 
 Please check the constraints used in this model. 


 ***WARNING: SOLVER PROBLEM.  ZERO PIVOT WHEN PROCESSING NODE 18323 INSTANCE 
             NDBR40-M-1 D.O.F. 11
  Typically a zero pivot is associated with an overconstraint in the model. 
 However, Abaqus was not able to identify any chains of constraints that might 
 lead to an overconstraint at this node. This suggests that the model might be 
 in fact insufficiently constrained in this particular degree of freedom. 
 Please check the constraints used in this model. 


 ***WARNING: SOLVER PROBLEM.  ZERO PIVOT WHEN PROCESSING NODE 18324 INSTANCE 
             NDBR40-M-1 D.O.F. 11
  Typically a zero pivot is associated with an overconstraint in the model. 
 However, Abaqus was not able to identify any chains of constraints that might 
 lead to an overconstraint at this node. This suggests that the model might be 
 in fact insufficiently constrained in this particular degree of freedom. 
 Please check the constraints used in this model. 


 ***WARNING: SOLVER PROBLEM.  ZERO PIVOT WHEN PROCESSING NODE 18391 INSTANCE 
             NDBR40-M-1 D.O.F. 11
  Typically a zero pivot is associated with an overconstraint in the model. 
 However, Abaqus was not able to identify any chains of constraints that might 
 lead to an overconstraint at this node. This suggests that the model might be 
 in fact insufficiently constrained in this particular degree of freedom. 
 Please check the constraints used in this model. 


 ***WARNING: SOLVER PROBLEM.  ZERO PIVOT WHEN PROCESSING NODE 18392 INSTANCE 
             NDBR40-M-1 D.O.F. 11
  Typically a zero pivot is associated with an overconstraint in the model. 
 However, Abaqus was not able to identify any chains of constraints that might 
 lead to an overconstraint at this node. This suggests that the model might be 
 in fact insufficiently constrained in this particular degree of freedom. 
 Please check the constraints used in this model. 


 ***WARNING: SOLVER PROBLEM.  ZERO PIVOT WHEN PROCESSING NODE 18393 INSTANCE 
             NDBR40-M-1 D.O.F. 11
  Typically a zero pivot is associated with an overconstraint in the model. 
 However, Abaqus was not able to identify any chains of constraints that might 
 lead to an overconstraint at this node. This suggests that the model might be 
 in fact insufficiently constrained in this particular degree of freedom. 
 Please check the constraints used in this model. 


 ***WARNING: SOLVER PROBLEM.  ZERO PIVOT WHEN PROCESSING NODE 18461 INSTANCE 
             NDBR40-M-1 D.O.F. 11
  Typically a zero pivot is associated with an overconstraint in the model. 
 However, Abaqus was not able to identify any chains of constraints that might 
 lead to an overconstraint at this node. This suggests that the model might be 
 in fact insufficiently constrained in this particular degree of freedom. 
 Please check the constraints used in this model. 


 ***WARNING: SOLVER PROBLEM.  ZERO PIVOT WHEN PROCESSING NODE 18462 INSTANCE 
             NDBR40-M-1 D.O.F. 11
  Typically a zero pivot is associated with an overconstraint in the model. 
 However, Abaqus was not able to identify any chains of constraints that might 
 lead to an overconstraint at this node. This suggests that the model might be 
 in fact insufficiently constrained in this particular degree of freedom. 
 Please check the constraints used in this model. 


 ***WARNING: SOLVER PROBLEM.  ZERO PIVOT WHEN PROCESSING NODE 21982 INSTANCE 
             NDBR40-M-1 D.O.F. 11
  Typically a zero pivot is associated with an overconstraint in the model. 
 However, Abaqus was not able to identify any chains of constraints that might 
 lead to an overconstraint at this node. This suggests that the model might be 
 in fact insufficiently constrained in this particular degree of freedom. 
 Please check the constraints used in this model. 


 ***WARNING: SOLVER PROBLEM.  ZERO PIVOT WHEN PROCESSING NODE 21981 INSTANCE 
             NDBR40-M-1 D.O.F. 11
  Typically a zero pivot is associated with an overconstraint in the model. 
 However, Abaqus was not able to identify any chains of constraints that might 
 lead to an overconstraint at this node. This suggests that the model might be 
 in fact insufficiently constrained in this particular degree of freedom. 
 Please check the constraints used in this model. 


 ***WARNING: SOLVER PROBLEM.  ZERO PIVOT WHEN PROCESSING NODE 22189 INSTANCE 
             NDBR40-M-1 D.O.F. 11
  Typically a zero pivot is associated with an overconstraint in the model. 
 However, Abaqus was not able to identify any chains of constraints that might 
 lead to an overconstraint at this node. This suggests that the model might be 
 in fact insufficiently constrained in this particular degree of freedom. 
 Please check the constraints used in this model. 


 ***WARNING: SOLVER PROBLEM.  ZERO PIVOT WHEN PROCESSING NODE 22120 INSTANCE 
             NDBR40-M-1 D.O.F. 11
  Typically a zero pivot is associated with an overconstraint in the model. 
 However, Abaqus was not able to identify any chains of constraints that might 
 lead to an overconstraint at this node. This suggests that the model might be 
 in fact insufficiently constrained in this particular degree of freedom. 
 Please check the constraints used in this model. 


 ***WARNING: SOLVER PROBLEM.  ZERO PIVOT WHEN PROCESSING NODE 22051 INSTANCE 
             NDBR40-M-1 D.O.F. 11
  Typically a zero pivot is associated with an overconstraint in the model. 
 However, Abaqus was not able to identify any chains of constraints that might 
 lead to an overconstraint at this node. This suggests that the model might be 
 in fact insufficiently constrained in this particular degree of freedom. 
 Please check the constraints used in this model. 


 ***WARNING: SOLVER PROBLEM.  ZERO PIVOT WHEN PROCESSING NODE 20326 INSTANCE 
             NDBR40-M-1 D.O.F. 11
  Typically a zero pivot is associated with an overconstraint in the model. 
 However, Abaqus was not able to identify any chains of constraints that might 
 lead to an overconstraint at this node. This suggests that the model might be 
 in fact insufficiently constrained in this particular degree of freedom. 
 Please check the constraints used in this model. 


 ***WARNING: SOLVER PROBLEM.  ZERO PIVOT WHEN PROCESSING NODE 20118 INSTANCE 
             NDBR40-M-1 D.O.F. 11
  Typically a zero pivot is associated with an overconstraint in the model. 
 However, Abaqus was not able to identify any chains of constraints that might 
 lead to an overconstraint at this node. This suggests that the model might be 
 in fact insufficiently constrained in this particular degree of freedom. 
 Please check the constraints used in this model. 


 ***WARNING: SOLVER PROBLEM.  ZERO PIVOT WHEN PROCESSING NODE 20119 INSTANCE 
             NDBR40-M-1 D.O.F. 11
  Typically a zero pivot is associated with an overconstraint in the model. 
 However, Abaqus was not able to identify any chains of constraints that might 
 lead to an overconstraint at this node. This suggests that the model might be 
 in fact insufficiently constrained in this particular degree of freedom. 
 Please check the constraints used in this model. 


 ***WARNING: SOLVER PROBLEM.  ZERO PIVOT WHEN PROCESSING NODE 20187 INSTANCE 
             NDBR40-M-1 D.O.F. 11
  Typically a zero pivot is associated with an overconstraint in the model. 
 However, Abaqus was not able to identify any chains of constraints that might 
 lead to an overconstraint at this node. This suggests that the model might be 
 in fact insufficiently constrained in this particular degree of freedom. 
 Please check the constraints used in this model. 


 ***WARNING: SOLVER PROBLEM.  ZERO PIVOT WHEN PROCESSING NODE 20188 INSTANCE 
             NDBR40-M-1 D.O.F. 11
  Typically a zero pivot is associated with an overconstraint in the model. 
 However, Abaqus was not able to identify any chains of constraints that might 
 lead to an overconstraint at this node. This suggests that the model might be 
 in fact insufficiently constrained in this particular degree of freedom. 
 Please check the constraints used in this model. 


 ***WARNING: SOLVER PROBLEM.  ZERO PIVOT WHEN PROCESSING NODE 20256 INSTANCE 
             NDBR40-M-1 D.O.F. 11
  Typically a zero pivot is associated with an overconstraint in the model. 
 However, Abaqus was not able to identify any chains of constraints that might 
 lead to an overconstraint at this node. This suggests that the model might be 
 in fact insufficiently constrained in this particular degree of freedom. 
 Please check the constraints used in this model. 


 ***WARNING: SOLVER PROBLEM.  ZERO PIVOT WHEN PROCESSING NODE 20257 INSTANCE 
             NDBR40-M-1 D.O.F. 11
  Typically a zero pivot is associated with an overconstraint in the model. 
 However, Abaqus was not able to identify any chains of constraints that might 
 lead to an overconstraint at this node. This suggests that the model might be 
 in fact insufficiently constrained in this particular degree of freedom. 
 Please check the constraints used in this model. 


 ***WARNING: SOLVER PROBLEM.  ZERO PIVOT WHEN PROCESSING NODE 20325 INSTANCE 
             NDBR40-M-1 D.O.F. 11
  Typically a zero pivot is associated with an overconstraint in the model. 
 However, Abaqus was not able to identify any chains of constraints that might 
 lead to an overconstraint at this node. This suggests that the model might be 
 in fact insufficiently constrained in this particular degree of freedom. 
 Please check the constraints used in this model. 


 ***WARNING: SOLVER PROBLEM.  ZERO PIVOT WHEN PROCESSING NODE 5665 INSTANCE 
             NDBR40-M-1 D.O.F. 11
  Typically a zero pivot is associated with an overconstraint in the model. 
 However, Abaqus was not able to identify any chains of constraints that might 
 lead to an overconstraint at this node. This suggests that the model might be 
 in fact insufficiently constrained in this particular degree of freedom. 
 Please check the constraints used in this model. 


 ***WARNING: SOLVER PROBLEM.  ZERO PIVOT WHEN PROCESSING NODE 5666 INSTANCE 
             NDBR40-M-1 D.O.F. 11
  Typically a zero pivot is associated with an overconstraint in the model. 
 However, Abaqus was not able to identify any chains of constraints that might 
 lead to an overconstraint at this node. This suggests that the model might be 
 in fact insufficiently constrained in this particular degree of freedom. 
 Please check the constraints used in this model. 


 ***WARNING: SOLVER PROBLEM.  ZERO PIVOT WHEN PROCESSING NODE 5872 INSTANCE 
             NDBR40-M-1 D.O.F. 11
  Typically a zero pivot is associated with an overconstraint in the model. 
 However, Abaqus was not able to identify any chains of constraints that might 
 lead to an overconstraint at this node. This suggests that the model might be 
 in fact insufficiently constrained in this particular degree of freedom. 
 Please check the constraints used in this model. 


 ***WARNING: SOLVER PROBLEM.  ZERO PIVOT WHEN PROCESSING NODE 5803 INSTANCE 
             NDBR40-M-1 D.O.F. 11
  Typically a zero pivot is associated with an overconstraint in the model. 
 However, Abaqus was not able to identify any chains of constraints that might 
 lead to an overconstraint at this node. This suggests that the model might be 
 in fact insufficiently constrained in this particular degree of freedom. 
 Please check the constraints used in this model. 


 ***WARNING: SOLVER PROBLEM.  ZERO PIVOT WHEN PROCESSING NODE 5734 INSTANCE 
             NDBR40-M-1 D.O.F. 11
  Typically a zero pivot is associated with an overconstraint in the model. 
 However, Abaqus was not able to identify any chains of constraints that might 
 lead to an overconstraint at this node. This suggests that the model might be 
 in fact insufficiently constrained in this particular degree of freedom. 
 Please check the constraints used in this model. 


 ***WARNING: SOLVER PROBLEM.  ZERO PIVOT WHEN PROCESSING NODE 5735 INSTANCE 
             NDBR40-M-1 D.O.F. 11
  Typically a zero pivot is associated with an overconstraint in the model. 
 However, Abaqus was not able to identify any chains of constraints that might 
 lead to an overconstraint at this node. This suggests that the model might be 
 in fact insufficiently constrained in this particular degree of freedom. 
 Please check the constraints used in this model. 


 ***WARNING: SOLVER PROBLEM.  ZERO PIVOT WHEN PROCESSING NODE 5669 INSTANCE 
             NDBR40-M-1 D.O.F. 11
  Typically a zero pivot is associated with an overconstraint in the model. 
 However, Abaqus was not able to identify any chains of constraints that might 
 lead to an overconstraint at this node. This suggests that the model might be 
 in fact insufficiently constrained in this particular degree of freedom. 
 Please check the constraints used in this model. 


 ***WARNING: SOLVER PROBLEM.  ZERO PIVOT WHEN PROCESSING NODE 5668 INSTANCE 
             NDBR40-M-1 D.O.F. 11
  Typically a zero pivot is associated with an overconstraint in the model. 
 However, Abaqus was not able to identify any chains of constraints that might 
 lead to an overconstraint at this node. This suggests that the model might be 
 in fact insufficiently constrained in this particular degree of freedom. 
 Please check the constraints used in this model. 


 ***WARNING: SOLVER PROBLEM.  ZERO PIVOT WHEN PROCESSING NODE 5876 INSTANCE 
             NDBR40-M-1 D.O.F. 11
  Typically a zero pivot is associated with an overconstraint in the model. 
 However, Abaqus was not able to identify any chains of constraints that might 
 lead to an overconstraint at this node. This suggests that the model might be 
 in fact insufficiently constrained in this particular degree of freedom. 
 Please check the constraints used in this model. 


 ***WARNING: SOLVER PROBLEM.  ZERO PIVOT WHEN PROCESSING NODE 5807 INSTANCE 
             NDBR40-M-1 D.O.F. 11
  Typically a zero pivot is associated with an overconstraint in the model. 
 However, Abaqus was not able to identify any chains of constraints that might 
 lead to an overconstraint at this node. This suggests that the model might be 
 in fact insufficiently constrained in this particular degree of freedom. 
 Please check the constraints used in this model. 


 ***WARNING: SOLVER PROBLEM.  ZERO PIVOT WHEN PROCESSING NODE 5738 INSTANCE 
             NDBR40-M-1 D.O.F. 11
  Typically a zero pivot is associated with an overconstraint in the model. 
 However, Abaqus was not able to identify any chains of constraints that might 
 lead to an overconstraint at this node. This suggests that the model might be 
 in fact insufficiently constrained in this particular degree of freedom. 
 Please check the constraints used in this model. 


 ***WARNING: SOLVER PROBLEM.  ZERO PIVOT WHEN PROCESSING NODE 5737 INSTANCE 
             NDBR40-M-1 D.O.F. 11
  Typically a zero pivot is associated with an overconstraint in the model. 
 However, Abaqus was not able to identify any chains of constraints that might 
 lead to an overconstraint at this node. This suggests that the model might be 
 in fact insufficiently constrained in this particular degree of freedom. 
 Please check the constraints used in this model. 


 ***WARNING: SOLVER PROBLEM.  ZERO PIVOT WHEN PROCESSING NODE 5736 INSTANCE 
             NDBR40-M-1 D.O.F. 11
  Typically a zero pivot is associated with an overconstraint in the model. 
 However, Abaqus was not able to identify any chains of constraints that might 
 lead to an overconstraint at this node. This suggests that the model might be 
 in fact insufficiently constrained in this particular degree of freedom. 
 Please check the constraints used in this model. 


 ***WARNING: SOLVER PROBLEM.  ZERO PIVOT WHEN PROCESSING NODE 5667 INSTANCE 
             NDBR40-M-1 D.O.F. 11
  Typically a zero pivot is associated with an overconstraint in the model. 
 However, Abaqus was not able to identify any chains of constraints that might 
 lead to an overconstraint at this node. This suggests that the model might be 
 in fact insufficiently constrained in this particular degree of freedom. 
 Please check the constraints used in this model. 


 ***WARNING: Solver problem. Zero pivot when processing D.O.F. 11 of 49 nodes. 
             The nodes have been identified in node set 
             WarnNodeSolvProbZeroPiv_11_2_1_1_1.

               CONVERGENCE CHECKS FOR EQUILIBRIUM ITERATION     1


 AVERAGE FORCE                      9.638E-02   TIME AVG. FORCE       9.638E-02
 LARGEST SCALED RESIDUAL FORCE      2.466E-03   AT NODE      39474   DOF  3
   INSTANCE: NDBR40-M-1                                                                      
  CORRESPONDING RESIDUAL FORCE      2.466E-03
 LARGEST INCREMENT OF DISP.         2.001E-05   AT NODE      40537   DOF  2
   INSTANCE: NDBR40-M-1                                                                      
 LARGEST CORRECTION TO DISP.        2.001E-05   AT NODE      40537   DOF  2
   INSTANCE: NDBR40-M-1                                                                      
          FORCE     EQUILIBRIUM NOT ACHIEVED WITHIN TOLERANCE.

 AVERAGE HEAT FLUX                  1.960E-16   TIME AVG. HEAT FLUX   1.000E-02
 LARGEST RESIDUAL HEAT FLUX         1.752E-18   AT NODE      40082   DOF 11
   INSTANCE: NDBR40-M-1                                                                      
 LARGEST INCREMENT OF TEMP.         2.519E-04   AT NODE      41971   DOF 11
   INSTANCE: NDBR40-M-1                                                                      
 LARGEST CORRECTION TO TEMP.        2.519E-04   AT NODE      41971   DOF 11
   INSTANCE: NDBR40-M-1                                                                      
          THERE IS ZERO HEAT FLUX EVERYWHERE
 

 ***WARNING: THERE IS ZERO HEAT FLUX EVERYWHERE IN THE MODEL BASED ON THE 
             DEFAULT CRITERION. PLEASE CHECK THE VALUE OF THE AVERAGE HEAT FLUX 
             DURING THE CURRENT ITERATION TO VERIFY THAT THE HEAT FLUX IS SMALL 
             ENOUGH TO BE TREATED AS ZERO. IF NOT, PLEASE USE THE SOLUTION 
             CONTROLS TO RESET THE CRITERION FOR ZERO HEAT FLUX.
 
	UNSYMMETRIC NEW DIRECT SPARSE SOLVER RUNNING ON
 	1 HOST x 1 MPI RANK PER HOST x 6 THREADS PER RANK
        NUMBER OF EQUATIONS:  168120
        NUMBER OF RHS:        1
        NUMBER OF FLOPS:      2.693e+11
        SOLVER ELAPSED TIME:  1.6s

               CONVERGENCE CHECKS FOR EQUILIBRIUM ITERATION     2


 AVERAGE FORCE                      9.638E-02   TIME AVG. FORCE       9.638E-02
 LARGEST SCALED RESIDUAL FORCE     -4.044E-08   AT NODE      41388   DOF  2
   INSTANCE: NDBR40-M-1                                                                      
  CORRESPONDING RESIDUAL FORCE     -4.044E-08
 LARGEST INCREMENT OF DISP.         2.001E-05   AT NODE      40537   DOF  2
   INSTANCE: NDBR40-M-1                                                                      
 LARGEST CORRECTION TO DISP.        1.232E-10   AT NODE      40704   DOF  2
   INSTANCE: NDBR40-M-1                                                                      
          THE FORCE     EQUILIBRIUM EQUATIONS HAVE CONVERGED

 AVERAGE HEAT FLUX                  1.960E-16   TIME AVG. HEAT FLUX   1.000E-02
 LARGEST RESIDUAL HEAT FLUX        -8.435E-23   AT NODE      41730   DOF 11
   INSTANCE: NDBR40-M-1                                                                      
 LARGEST INCREMENT OF TEMP.         2.519E-04   AT NODE      41971   DOF 11
   INSTANCE: NDBR40-M-1                                                                      
 LARGEST CORRECTION TO TEMP.        2.015E-08   AT NODE      41972   DOF 11
   INSTANCE: NDBR40-M-1                                                                      
          THERE IS ZERO HEAT FLUX EVERYWHERE
 

 ***WARNING: THERE IS ZERO HEAT FLUX EVERYWHERE IN THE MODEL BASED ON THE 
             DEFAULT CRITERION. PLEASE CHECK THE VALUE OF THE AVERAGE HEAT FLUX 
             DURING THE CURRENT ITERATION TO VERIFY THAT THE HEAT FLUX IS SMALL 
             ENOUGH TO BE TREATED AS ZERO. IF NOT, PLEASE USE THE SOLUTION 
             CONTROLS TO RESET THE CRITERION FOR ZERO HEAT FLUX.

 MAXIMUM NON-PRESCRIBED INCREMENT IN TEMPERATURE IS   2.519E-04

 ITERATION SUMMARY FOR THE INCREMENT:   2 TOTAL ITERATIONS, OF WHICH
   0 ARE SEVERE DISCONTINUITY ITERATIONS AND  2 ARE EQUILIBRIUM ITERATIONS.

 TIME INCREMENT COMPLETED   8.00    ,  FRACTION OF STEP COMPLETED  1.000E-02
 STEP TIME COMPLETED        8.00    ,  TOTAL TIME COMPLETED        7.208E+03


  INCREMENT     2 STARTS. ATTEMPT NUMBER  1, TIME INCREMENT   8.00    
 
	UNSYMMETRIC NEW DIRECT SPARSE SOLVER RUNNING ON
 	1 HOST x 1 MPI RANK PER HOST x 6 THREADS PER RANK
        NUMBER OF EQUATIONS:  168120
        NUMBER OF RHS:        1
        NUMBER OF FLOPS:      2.693e+11
        SOLVER ELAPSED TIME:  1.6s

               CONVERGENCE CHECKS FOR EQUILIBRIUM ITERATION     1


 AVERAGE FORCE                      0.228       TIME AVG. FORCE       0.162    
 LARGEST SCALED RESIDUAL FORCE     -9.081E-08   AT NODE      40755   DOF  2
   INSTANCE: NDBR40-M-1                                                                      
  CORRESPONDING RESIDUAL FORCE     -9.081E-08
 LARGEST INCREMENT OF DISP.         2.001E-05   AT NODE      40537   DOF  2
   INSTANCE: NDBR40-M-1                                                                      
 LARGEST CORRECTION TO DISP.        2.354E-10   AT NODE      40704   DOF  2
   INSTANCE: NDBR40-M-1                                                                      
          THE FORCE     EQUILIBRIUM EQUATIONS HAVE CONVERGED

 AVERAGE HEAT FLUX                  1.927E-16   TIME AVG. HEAT FLUX   1.000E-02
 LARGEST RESIDUAL HEAT FLUX        -1.645E-22   AT NODE      41796   DOF 11
   INSTANCE: NDBR40-M-1                                                                      
 LARGEST INCREMENT OF TEMP.         2.480E-04   AT NODE      41971   DOF 11
   INSTANCE: NDBR40-M-1                                                                      
 LARGEST CORRECTION TO TEMP.        6.871E-05   AT NODE      42030   DOF 11
   INSTANCE: NDBR40-M-1                                                                      
          THERE IS ZERO HEAT FLUX EVERYWHERE
 

 ***WARNING: THERE IS ZERO HEAT FLUX EVERYWHERE IN THE MODEL BASED ON THE 
             DEFAULT CRITERION. PLEASE CHECK THE VALUE OF THE AVERAGE HEAT FLUX 
             DURING THE CURRENT ITERATION TO VERIFY THAT THE HEAT FLUX IS SMALL 
             ENOUGH TO BE TREATED AS ZERO. IF NOT, PLEASE USE THE SOLUTION 
             CONTROLS TO RESET THE CRITERION FOR ZERO HEAT FLUX.

 MAXIMUM NON-PRESCRIBED INCREMENT IN TEMPERATURE IS   2.480E-04

 ITERATION SUMMARY FOR THE INCREMENT:   1 TOTAL ITERATIONS, OF WHICH
   0 ARE SEVERE DISCONTINUITY ITERATIONS AND  1 ARE EQUILIBRIUM ITERATIONS.

 TIME INCREMENT COMPLETED   8.00    ,  FRACTION OF STEP COMPLETED  2.000E-02
 STEP TIME COMPLETED        16.0    ,  TOTAL TIME COMPLETED        7.216E+03


  INCREMENT     3 STARTS. ATTEMPT NUMBER  1, TIME INCREMENT   8.00    
 
	UNSYMMETRIC NEW DIRECT SPARSE SOLVER RUNNING ON
 	1 HOST x 1 MPI RANK PER HOST x 6 THREADS PER RANK
        NUMBER OF EQUATIONS:  168120
        NUMBER OF RHS:        1
        NUMBER OF FLOPS:      2.693e+11
        SOLVER ELAPSED TIME:  1.7s

               CONVERGENCE CHECKS FOR EQUILIBRIUM ITERATION     1


 AVERAGE FORCE                      0.341       TIME AVG. FORCE       0.222    
 LARGEST SCALED RESIDUAL FORCE     -1.621E-07   AT NODE      40755   DOF  2
   INSTANCE: NDBR40-M-1                                                                      
  CORRESPONDING RESIDUAL FORCE     -1.621E-07
 LARGEST INCREMENT OF DISP.         2.001E-05   AT NODE      40537   DOF  2
   INSTANCE: NDBR40-M-1                                                                      
 LARGEST CORRECTION TO DISP.        2.354E-10   AT NODE      40704   DOF  2
   INSTANCE: NDBR40-M-1                                                                      
          THE FORCE     EQUILIBRIUM EQUATIONS HAVE CONVERGED

 AVERAGE HEAT FLUX                  1.896E-16   TIME AVG. HEAT FLUX   1.000E-02
 LARGEST RESIDUAL HEAT FLUX        -1.626E-22   AT NODE      41730   DOF 11
   INSTANCE: NDBR40-M-1                                                                      
 LARGEST INCREMENT OF TEMP.         2.443E-04   AT NODE      41971   DOF 11
   INSTANCE: NDBR40-M-1                                                                      
 LARGEST CORRECTION TO TEMP.       -5.848E-05   AT NODE      32016   DOF 11
   INSTANCE: NDBR40-M-1                                                                      
          THERE IS ZERO HEAT FLUX EVERYWHERE
 

 ***WARNING: THERE IS ZERO HEAT FLUX EVERYWHERE IN THE MODEL BASED ON THE 
             DEFAULT CRITERION. PLEASE CHECK THE VALUE OF THE AVERAGE HEAT FLUX 
             DURING THE CURRENT ITERATION TO VERIFY THAT THE HEAT FLUX IS SMALL 
             ENOUGH TO BE TREATED AS ZERO. IF NOT, PLEASE USE THE SOLUTION 
             CONTROLS TO RESET THE CRITERION FOR ZERO HEAT FLUX.

 MAXIMUM NON-PRESCRIBED INCREMENT IN TEMPERATURE IS   2.443E-04

 ITERATION SUMMARY FOR THE INCREMENT:   1 TOTAL ITERATIONS, OF WHICH
   0 ARE SEVERE DISCONTINUITY ITERATIONS AND  1 ARE EQUILIBRIUM ITERATIONS.

 TIME INCREMENT COMPLETED   8.00    ,  FRACTION OF STEP COMPLETED  3.000E-02
 STEP TIME COMPLETED        24.0    ,  TOTAL TIME COMPLETED        7.224E+03


  INCREMENT     4 STARTS. ATTEMPT NUMBER  1, TIME INCREMENT   8.00    
 
	UNSYMMETRIC NEW DIRECT SPARSE SOLVER RUNNING ON
 	1 HOST x 1 MPI RANK PER HOST x 6 THREADS PER RANK
        NUMBER OF EQUATIONS:  168120
        NUMBER OF RHS:        1
        NUMBER OF FLOPS:      2.693e+11
        SOLVER ELAPSED TIME:  1.7s

               CONVERGENCE CHECKS FOR EQUILIBRIUM ITERATION     1


 AVERAGE FORCE                      0.455       TIME AVG. FORCE       0.280    
 LARGEST SCALED RESIDUAL FORCE     -2.333E-07   AT NODE      40755   DOF  2
   INSTANCE: NDBR40-M-1                                                                      
  CORRESPONDING RESIDUAL FORCE     -2.333E-07
 LARGEST INCREMENT OF DISP.         2.001E-05   AT NODE      40537   DOF  2
   INSTANCE: NDBR40-M-1                                                                      
 LARGEST CORRECTION TO DISP.        2.353E-10   AT NODE      40704   DOF  2
   INSTANCE: NDBR40-M-1                                                                      
          THE FORCE     EQUILIBRIUM EQUATIONS HAVE CONVERGED

 AVERAGE HEAT FLUX                  1.868E-16   TIME AVG. HEAT FLUX   1.000E-02
 LARGEST RESIDUAL HEAT FLUX        -1.607E-22   AT NODE      41730   DOF 11
   INSTANCE: NDBR40-M-1                                                                      
 LARGEST INCREMENT OF TEMP.         2.773E-04   AT NODE      42025   DOF 11
   INSTANCE: NDBR40-M-1                                                                      
 LARGEST CORRECTION TO TEMP.       -5.687E-05   AT NODE      32016   DOF 11
   INSTANCE: NDBR40-M-1                                                                      
          THERE IS ZERO HEAT FLUX EVERYWHERE
 

 ***WARNING: THERE IS ZERO HEAT FLUX EVERYWHERE IN THE MODEL BASED ON THE 
             DEFAULT CRITERION. PLEASE CHECK THE VALUE OF THE AVERAGE HEAT FLUX 
             DURING THE CURRENT ITERATION TO VERIFY THAT THE HEAT FLUX IS SMALL 
             ENOUGH TO BE TREATED AS ZERO. IF NOT, PLEASE USE THE SOLUTION 
             CONTROLS TO RESET THE CRITERION FOR ZERO HEAT FLUX.

 MAXIMUM NON-PRESCRIBED INCREMENT IN TEMPERATURE IS   2.773E-04

 ITERATION SUMMARY FOR THE INCREMENT:   1 TOTAL ITERATIONS, OF WHICH
   0 ARE SEVERE DISCONTINUITY ITERATIONS AND  1 ARE EQUILIBRIUM ITERATIONS.

 TIME INCREMENT COMPLETED   8.00    ,  FRACTION OF STEP COMPLETED  4.000E-02
 STEP TIME COMPLETED        32.0    ,  TOTAL TIME COMPLETED        7.232E+03


  INCREMENT     5 STARTS. ATTEMPT NUMBER  1, TIME INCREMENT   8.00    
 
	UNSYMMETRIC NEW DIRECT SPARSE SOLVER RUNNING ON
 	1 HOST x 1 MPI RANK PER HOST x 6 THREADS PER RANK
        NUMBER OF EQUATIONS:  168120
        NUMBER OF RHS:        1
        NUMBER OF FLOPS:      2.693e+11
        SOLVER ELAPSED TIME:  1.6s

               CONVERGENCE CHECKS FOR EQUILIBRIUM ITERATION     1


 AVERAGE FORCE                      0.569       TIME AVG. FORCE       0.338    
 LARGEST SCALED RESIDUAL FORCE     -3.045E-07   AT NODE      40755   DOF  2
   INSTANCE: NDBR40-M-1                                                                      
  CORRESPONDING RESIDUAL FORCE     -3.045E-07
 LARGEST INCREMENT OF DISP.         2.001E-05   AT NODE      40537   DOF  2
   INSTANCE: NDBR40-M-1                                                                      
 LARGEST CORRECTION TO DISP.        2.353E-10   AT NODE      40704   DOF  2
   INSTANCE: NDBR40-M-1                                                                      
          THE FORCE     EQUILIBRIUM EQUATIONS HAVE CONVERGED

 AVERAGE HEAT FLUX                  1.843E-16   TIME AVG. HEAT FLUX   1.000E-02
 LARGEST RESIDUAL HEAT FLUX        -1.587E-22   AT NODE      41730   DOF 11
   INSTANCE: NDBR40-M-1                                                                      
 LARGEST INCREMENT OF TEMP.         3.039E-04   AT NODE      42025   DOF 11
   INSTANCE: NDBR40-M-1                                                                      
 LARGEST CORRECTION TO TEMP.       -5.519E-05   AT NODE      32016   DOF 11
   INSTANCE: NDBR40-M-1                                                                      
          THERE IS ZERO HEAT FLUX EVERYWHERE
 

 ***WARNING: THERE IS ZERO HEAT FLUX EVERYWHERE IN THE MODEL BASED ON THE 
             DEFAULT CRITERION. PLEASE CHECK THE VALUE OF THE AVERAGE HEAT FLUX 
             DURING THE CURRENT ITERATION TO VERIFY THAT THE HEAT FLUX IS SMALL 
             ENOUGH TO BE TREATED AS ZERO. IF NOT, PLEASE USE THE SOLUTION 
             CONTROLS TO RESET THE CRITERION FOR ZERO HEAT FLUX.

 MAXIMUM NON-PRESCRIBED INCREMENT IN TEMPERATURE IS   3.039E-04

 ITERATION SUMMARY FOR THE INCREMENT:   1 TOTAL ITERATIONS, OF WHICH
   0 ARE SEVERE DISCONTINUITY ITERATIONS AND  1 ARE EQUILIBRIUM ITERATIONS.

 TIME INCREMENT COMPLETED   8.00    ,  FRACTION OF STEP COMPLETED  5.000E-02
 STEP TIME COMPLETED        40.0    ,  TOTAL TIME COMPLETED        7.240E+03


  INCREMENT     6 STARTS. ATTEMPT NUMBER  1, TIME INCREMENT   8.00    
 
	UNSYMMETRIC NEW DIRECT SPARSE SOLVER RUNNING ON
 	1 HOST x 1 MPI RANK PER HOST x 6 THREADS PER RANK
        NUMBER OF EQUATIONS:  168120
        NUMBER OF RHS:        1
        NUMBER OF FLOPS:      2.693e+11
        SOLVER ELAPSED TIME:  1.7s

               CONVERGENCE CHECKS FOR EQUILIBRIUM ITERATION     1


 AVERAGE FORCE                      0.682       TIME AVG. FORCE       0.395    
 LARGEST SCALED RESIDUAL FORCE     -3.756E-07   AT NODE      40755   DOF  2
   INSTANCE: NDBR40-M-1                                                                      
  CORRESPONDING RESIDUAL FORCE     -3.756E-07
 LARGEST INCREMENT OF DISP.         2.001E-05   AT NODE      40537   DOF  2
   INSTANCE: NDBR40-M-1                                                                      
 LARGEST CORRECTION TO DISP.        2.353E-10   AT NODE      40704   DOF  2
   INSTANCE: NDBR40-M-1                                                                      
          THE FORCE     EQUILIBRIUM EQUATIONS HAVE CONVERGED

 AVERAGE HEAT FLUX                  1.821E-16   TIME AVG. HEAT FLUX   1.000E-02
 LARGEST RESIDUAL HEAT FLUX        -1.568E-22   AT NODE      41730   DOF 11
   INSTANCE: NDBR40-M-1                                                                      
 LARGEST INCREMENT OF TEMP.         3.247E-04   AT NODE      42025   DOF 11
   INSTANCE: NDBR40-M-1                                                                      
 LARGEST CORRECTION TO TEMP.       -5.396E-05   AT NODE      32242   DOF 11
   INSTANCE: NDBR40-M-1                                                                      
          THERE IS ZERO HEAT FLUX EVERYWHERE
 

 ***WARNING: THERE IS ZERO HEAT FLUX EVERYWHERE IN THE MODEL BASED ON THE 
             DEFAULT CRITERION. PLEASE CHECK THE VALUE OF THE AVERAGE HEAT FLUX 
             DURING THE CURRENT ITERATION TO VERIFY THAT THE HEAT FLUX IS SMALL 
             ENOUGH TO BE TREATED AS ZERO. IF NOT, PLEASE USE THE SOLUTION 
             CONTROLS TO RESET THE CRITERION FOR ZERO HEAT FLUX.

 MAXIMUM NON-PRESCRIBED INCREMENT IN TEMPERATURE IS   3.247E-04

 ITERATION SUMMARY FOR THE INCREMENT:   1 TOTAL ITERATIONS, OF WHICH
   0 ARE SEVERE DISCONTINUITY ITERATIONS AND  1 ARE EQUILIBRIUM ITERATIONS.

 TIME INCREMENT COMPLETED   8.00    ,  FRACTION OF STEP COMPLETED  6.000E-02
 STEP TIME COMPLETED        48.0    ,  TOTAL TIME COMPLETED        7.248E+03


  INCREMENT     7 STARTS. ATTEMPT NUMBER  1, TIME INCREMENT   8.00    
 
	UNSYMMETRIC NEW DIRECT SPARSE SOLVER RUNNING ON
 	1 HOST x 1 MPI RANK PER HOST x 6 THREADS PER RANK
        NUMBER OF EQUATIONS:  168120
        NUMBER OF RHS:        1
        NUMBER OF FLOPS:      2.693e+11
        SOLVER ELAPSED TIME:  1.7s

               CONVERGENCE CHECKS FOR EQUILIBRIUM ITERATION     1


 AVERAGE FORCE                      0.796       TIME AVG. FORCE       0.452    
 LARGEST SCALED RESIDUAL FORCE     -4.467E-07   AT NODE      40755   DOF  2
   INSTANCE: NDBR40-M-1                                                                      
  CORRESPONDING RESIDUAL FORCE     -4.467E-07
 LARGEST INCREMENT OF DISP.         2.001E-05   AT NODE      40537   DOF  2
   INSTANCE: NDBR40-M-1                                                                      
 LARGEST CORRECTION TO DISP.        2.352E-10   AT NODE      40704   DOF  2
   INSTANCE: NDBR40-M-1                                                                      
          THE FORCE     EQUILIBRIUM EQUATIONS HAVE CONVERGED

 AVERAGE HEAT FLUX                  1.802E-16   TIME AVG. HEAT FLUX   1.000E-02
 LARGEST RESIDUAL HEAT FLUX        -1.546E-22   AT NODE      41730   DOF 11
   INSTANCE: NDBR40-M-1                                                                      
 LARGEST INCREMENT OF TEMP.         3.412E-04   AT NODE      42025   DOF 11
   INSTANCE: NDBR40-M-1                                                                      
 LARGEST CORRECTION TO TEMP.       -5.287E-05   AT NODE      32242   DOF 11
   INSTANCE: NDBR40-M-1                                                                      
          THERE IS ZERO HEAT FLUX EVERYWHERE
 

 ***WARNING: THERE IS ZERO HEAT FLUX EVERYWHERE IN THE MODEL BASED ON THE 
             DEFAULT CRITERION. PLEASE CHECK THE VALUE OF THE AVERAGE HEAT FLUX 
             DURING THE CURRENT ITERATION TO VERIFY THAT THE HEAT FLUX IS SMALL 
             ENOUGH TO BE TREATED AS ZERO. IF NOT, PLEASE USE THE SOLUTION 
             CONTROLS TO RESET THE CRITERION FOR ZERO HEAT FLUX.

 MAXIMUM NON-PRESCRIBED INCREMENT IN TEMPERATURE IS   3.412E-04

 ITERATION SUMMARY FOR THE INCREMENT:   1 TOTAL ITERATIONS, OF WHICH
   0 ARE SEVERE DISCONTINUITY ITERATIONS AND  1 ARE EQUILIBRIUM ITERATIONS.

 TIME INCREMENT COMPLETED   8.00    ,  FRACTION OF STEP COMPLETED  7.000E-02
 STEP TIME COMPLETED        56.0    ,  TOTAL TIME COMPLETED        7.256E+03


  INCREMENT     8 STARTS. ATTEMPT NUMBER  1, TIME INCREMENT   8.00    
 
	UNSYMMETRIC NEW DIRECT SPARSE SOLVER RUNNING ON
 	1 HOST x 1 MPI RANK PER HOST x 6 THREADS PER RANK
        NUMBER OF EQUATIONS:  168120
        NUMBER OF RHS:        1
        NUMBER OF FLOPS:      2.693e+11
        SOLVER ELAPSED TIME:  1.7s

               CONVERGENCE CHECKS FOR EQUILIBRIUM ITERATION     1


 AVERAGE FORCE                      0.910       TIME AVG. FORCE       0.510    
 LARGEST SCALED RESIDUAL FORCE     -5.178E-07   AT NODE      40755   DOF  2
   INSTANCE: NDBR40-M-1                                                                      
  CORRESPONDING RESIDUAL FORCE     -5.178E-07
 LARGEST INCREMENT OF DISP.         2.001E-05   AT NODE      40537   DOF  2
   INSTANCE: NDBR40-M-1                                                                      
 LARGEST CORRECTION TO DISP.        2.352E-10   AT NODE      40704   DOF  2
   INSTANCE: NDBR40-M-1                                                                      
          THE FORCE     EQUILIBRIUM EQUATIONS HAVE CONVERGED

 AVERAGE HEAT FLUX                  1.786E-16   TIME AVG. HEAT FLUX   1.000E-02
 LARGEST RESIDUAL HEAT FLUX        -1.529E-22   AT NODE      41730   DOF 11
   INSTANCE: NDBR40-M-1                                                                      
 LARGEST INCREMENT OF TEMP.         3.546E-04   AT NODE      42025   DOF 11
   INSTANCE: NDBR40-M-1                                                                      
 LARGEST CORRECTION TO TEMP.       -5.186E-05   AT NODE      31494   DOF 11
   INSTANCE: NDBR40-M-1                                                                      
          THERE IS ZERO HEAT FLUX EVERYWHERE
 

 ***WARNING: THERE IS ZERO HEAT FLUX EVERYWHERE IN THE MODEL BASED ON THE 
             DEFAULT CRITERION. PLEASE CHECK THE VALUE OF THE AVERAGE HEAT FLUX 
             DURING THE CURRENT ITERATION TO VERIFY THAT THE HEAT FLUX IS SMALL 
             ENOUGH TO BE TREATED AS ZERO. IF NOT, PLEASE USE THE SOLUTION 
             CONTROLS TO RESET THE CRITERION FOR ZERO HEAT FLUX.

 MAXIMUM NON-PRESCRIBED INCREMENT IN TEMPERATURE IS   3.546E-04

 ITERATION SUMMARY FOR THE INCREMENT:   1 TOTAL ITERATIONS, OF WHICH
   0 ARE SEVERE DISCONTINUITY ITERATIONS AND  1 ARE EQUILIBRIUM ITERATIONS.

 TIME INCREMENT COMPLETED   8.00    ,  FRACTION OF STEP COMPLETED  8.000E-02
 STEP TIME COMPLETED        64.0    ,  TOTAL TIME COMPLETED        7.264E+03


  INCREMENT     9 STARTS. ATTEMPT NUMBER  1, TIME INCREMENT   8.00    
 
	UNSYMMETRIC NEW DIRECT SPARSE SOLVER RUNNING ON
 	1 HOST x 1 MPI RANK PER HOST x 6 THREADS PER RANK
        NUMBER OF EQUATIONS:  168120
        NUMBER OF RHS:        1
        NUMBER OF FLOPS:      2.693e+11
        SOLVER ELAPSED TIME:  1.6s

               CONVERGENCE CHECKS FOR EQUILIBRIUM ITERATION     1


 AVERAGE FORCE                       1.02       TIME AVG. FORCE       0.567    
 LARGEST SCALED RESIDUAL FORCE     -5.888E-07   AT NODE      40755   DOF  2
   INSTANCE: NDBR40-M-1                                                                      
  CORRESPONDING RESIDUAL FORCE     -5.888E-07
 LARGEST INCREMENT OF DISP.         2.001E-05   AT NODE      40537   DOF  2
   INSTANCE: NDBR40-M-1                                                                      
 LARGEST CORRECTION TO DISP.        2.352E-10   AT NODE      40704   DOF  2
   INSTANCE: NDBR40-M-1                                                                      
          THE FORCE     EQUILIBRIUM EQUATIONS HAVE CONVERGED

 AVERAGE HEAT FLUX                  1.773E-16   TIME AVG. HEAT FLUX   1.000E-02
 LARGEST RESIDUAL HEAT FLUX        -1.597E-22   AT NODE      41728   DOF 11
   INSTANCE: NDBR40-M-1                                                                      
 LARGEST INCREMENT OF TEMP.        -3.830E-04   AT NODE      32016   DOF 11
   INSTANCE: NDBR40-M-1                                                                      
 LARGEST CORRECTION TO TEMP.       -5.089E-05   AT NODE      31494   DOF 11
   INSTANCE: NDBR40-M-1                                                                      
          THERE IS ZERO HEAT FLUX EVERYWHERE
 

 ***WARNING: THERE IS ZERO HEAT FLUX EVERYWHERE IN THE MODEL BASED ON THE 
             DEFAULT CRITERION. PLEASE CHECK THE VALUE OF THE AVERAGE HEAT FLUX 
             DURING THE CURRENT ITERATION TO VERIFY THAT THE HEAT FLUX IS SMALL 
             ENOUGH TO BE TREATED AS ZERO. IF NOT, PLEASE USE THE SOLUTION 
             CONTROLS TO RESET THE CRITERION FOR ZERO HEAT FLUX.

 MAXIMUM NON-PRESCRIBED INCREMENT IN TEMPERATURE IS  -3.830E-04

 ITERATION SUMMARY FOR THE INCREMENT:   1 TOTAL ITERATIONS, OF WHICH
   0 ARE SEVERE DISCONTINUITY ITERATIONS AND  1 ARE EQUILIBRIUM ITERATIONS.

 TIME INCREMENT COMPLETED   8.00    ,  FRACTION OF STEP COMPLETED  9.000E-02
 STEP TIME COMPLETED        72.0    ,  TOTAL TIME COMPLETED        7.272E+03


  INCREMENT    10 STARTS. ATTEMPT NUMBER  1, TIME INCREMENT   8.00    
 
	UNSYMMETRIC NEW DIRECT SPARSE SOLVER RUNNING ON
 	1 HOST x 1 MPI RANK PER HOST x 6 THREADS PER RANK
        NUMBER OF EQUATIONS:  168120
        NUMBER OF RHS:        1
        NUMBER OF FLOPS:      2.693e+11
        SOLVER ELAPSED TIME:  1.7s

               CONVERGENCE CHECKS FOR EQUILIBRIUM ITERATION     1


 AVERAGE FORCE                       1.14       TIME AVG. FORCE       0.624    
 LARGEST SCALED RESIDUAL FORCE     -6.597E-07   AT NODE      40755   DOF  2
   INSTANCE: NDBR40-M-1                                                                      
  CORRESPONDING RESIDUAL FORCE     -6.597E-07
 LARGEST INCREMENT OF DISP.         2.001E-05   AT NODE      40537   DOF  2
   INSTANCE: NDBR40-M-1                                                                      
 LARGEST CORRECTION TO DISP.        2.351E-10   AT NODE      40704   DOF  2
   INSTANCE: NDBR40-M-1                                                                      
          THE FORCE     EQUILIBRIUM EQUATIONS HAVE CONVERGED

 AVERAGE HEAT FLUX                  1.763E-16   TIME AVG. HEAT FLUX   1.000E-02
 LARGEST RESIDUAL HEAT FLUX        -1.712E-22   AT NODE      41728   DOF 11
   INSTANCE: NDBR40-M-1                                                                      
 LARGEST INCREMENT OF TEMP.        -4.301E-04   AT NODE      32016   DOF 11
   INSTANCE: NDBR40-M-1                                                                      
 LARGEST CORRECTION TO TEMP.       -4.990E-05   AT NODE      31494   DOF 11
   INSTANCE: NDBR40-M-1                                                                      
          THERE IS ZERO HEAT FLUX EVERYWHERE
 

 ***WARNING: THERE IS ZERO HEAT FLUX EVERYWHERE IN THE MODEL BASED ON THE 
             DEFAULT CRITERION. PLEASE CHECK THE VALUE OF THE AVERAGE HEAT FLUX 
             DURING THE CURRENT ITERATION TO VERIFY THAT THE HEAT FLUX IS SMALL 
             ENOUGH TO BE TREATED AS ZERO. IF NOT, PLEASE USE THE SOLUTION 
             CONTROLS TO RESET THE CRITERION FOR ZERO HEAT FLUX.

 MAXIMUM NON-PRESCRIBED INCREMENT IN TEMPERATURE IS  -4.301E-04

 ITERATION SUMMARY FOR THE INCREMENT:   1 TOTAL ITERATIONS, OF WHICH
   0 ARE SEVERE DISCONTINUITY ITERATIONS AND  1 ARE EQUILIBRIUM ITERATIONS.

 TIME INCREMENT COMPLETED   8.00    ,  FRACTION OF STEP COMPLETED  0.100    
 STEP TIME COMPLETED        80.0    ,  TOTAL TIME COMPLETED        7.280E+03


  INCREMENT    11 STARTS. ATTEMPT NUMBER  1, TIME INCREMENT   8.00    
 
	UNSYMMETRIC NEW DIRECT SPARSE SOLVER RUNNING ON
 	1 HOST x 1 MPI RANK PER HOST x 6 THREADS PER RANK
        NUMBER OF EQUATIONS:  168120
        NUMBER OF RHS:        1
        NUMBER OF FLOPS:      2.693e+11
        SOLVER ELAPSED TIME:  1.7s

               CONVERGENCE CHECKS FOR EQUILIBRIUM ITERATION     1


 AVERAGE FORCE                       1.25       TIME AVG. FORCE       0.681    
 LARGEST SCALED RESIDUAL FORCE     -7.307E-07   AT NODE      40755   DOF  2
   INSTANCE: NDBR40-M-1                                                                      
  CORRESPONDING RESIDUAL FORCE     -7.307E-07
 LARGEST INCREMENT OF DISP.         2.001E-05   AT NODE      40537   DOF  2
   INSTANCE: NDBR40-M-1                                                                      
 LARGEST CORRECTION TO DISP.        2.351E-10   AT NODE      40704   DOF  2
   INSTANCE: NDBR40-M-1                                                                      
          THE FORCE     EQUILIBRIUM EQUATIONS HAVE CONVERGED

 AVERAGE HEAT FLUX                  1.756E-16   TIME AVG. HEAT FLUX   1.000E-02
 LARGEST RESIDUAL HEAT FLUX         1.864E-22   AT NODE      40083   DOF 11
   INSTANCE: NDBR40-M-1                                                                      
 LARGEST INCREMENT OF TEMP.        -4.758E-04   AT NODE      32016   DOF 11
   INSTANCE: NDBR40-M-1                                                                      
 LARGEST CORRECTION TO TEMP.       -4.889E-05   AT NODE      31494   DOF 11
   INSTANCE: NDBR40-M-1                                                                      
          THERE IS ZERO HEAT FLUX EVERYWHERE
 

 ***WARNING: THERE IS ZERO HEAT FLUX EVERYWHERE IN THE MODEL BASED ON THE 
             DEFAULT CRITERION. PLEASE CHECK THE VALUE OF THE AVERAGE HEAT FLUX 
             DURING THE CURRENT ITERATION TO VERIFY THAT THE HEAT FLUX IS SMALL 
             ENOUGH TO BE TREATED AS ZERO. IF NOT, PLEASE USE THE SOLUTION 
             CONTROLS TO RESET THE CRITERION FOR ZERO HEAT FLUX.

 MAXIMUM NON-PRESCRIBED INCREMENT IN TEMPERATURE IS  -4.758E-04

 ITERATION SUMMARY FOR THE INCREMENT:   1 TOTAL ITERATIONS, OF WHICH
   0 ARE SEVERE DISCONTINUITY ITERATIONS AND  1 ARE EQUILIBRIUM ITERATIONS.

 TIME INCREMENT COMPLETED   8.00    ,  FRACTION OF STEP COMPLETED  0.110    
 STEP TIME COMPLETED        88.0    ,  TOTAL TIME COMPLETED        7.288E+03


  INCREMENT    12 STARTS. ATTEMPT NUMBER  1, TIME INCREMENT   8.00    
 
	UNSYMMETRIC NEW DIRECT SPARSE SOLVER RUNNING ON
 	1 HOST x 1 MPI RANK PER HOST x 6 THREADS PER RANK
        NUMBER OF EQUATIONS:  168120
        NUMBER OF RHS:        1
        NUMBER OF FLOPS:      2.693e+11
        SOLVER ELAPSED TIME:  1.6s

               CONVERGENCE CHECKS FOR EQUILIBRIUM ITERATION     1


 AVERAGE FORCE                       1.36       TIME AVG. FORCE       0.738    
 LARGEST SCALED RESIDUAL FORCE     -8.015E-07   AT NODE      40755   DOF  2
   INSTANCE: NDBR40-M-1                                                                      
  CORRESPONDING RESIDUAL FORCE     -8.015E-07
 LARGEST INCREMENT OF DISP.         2.001E-05   AT NODE      40537   DOF  2
   INSTANCE: NDBR40-M-1                                                                      
 LARGEST CORRECTION TO DISP.        2.351E-10   AT NODE      40704   DOF  2
   INSTANCE: NDBR40-M-1                                                                      
          THE FORCE     EQUILIBRIUM EQUATIONS HAVE CONVERGED

 AVERAGE HEAT FLUX                  1.752E-16   TIME AVG. HEAT FLUX   1.000E-02
 LARGEST RESIDUAL HEAT FLUX         2.132E-22   AT NODE      40083   DOF 11
   INSTANCE: NDBR40-M-1                                                                      
 LARGEST INCREMENT OF TEMP.        -5.200E-04   AT NODE      32016   DOF 11
   INSTANCE: NDBR40-M-1                                                                      
 LARGEST CORRECTION TO TEMP.       -4.787E-05   AT NODE      31494   DOF 11
   INSTANCE: NDBR40-M-1                                                                      
          THERE IS ZERO HEAT FLUX EVERYWHERE
 

 ***WARNING: THERE IS ZERO HEAT FLUX EVERYWHERE IN THE MODEL BASED ON THE 
             DEFAULT CRITERION. PLEASE CHECK THE VALUE OF THE AVERAGE HEAT FLUX 
             DURING THE CURRENT ITERATION TO VERIFY THAT THE HEAT FLUX IS SMALL 
             ENOUGH TO BE TREATED AS ZERO. IF NOT, PLEASE USE THE SOLUTION 
             CONTROLS TO RESET THE CRITERION FOR ZERO HEAT FLUX.

 MAXIMUM NON-PRESCRIBED INCREMENT IN TEMPERATURE IS  -5.200E-04

 ITERATION SUMMARY FOR THE INCREMENT:   1 TOTAL ITERATIONS, OF WHICH
   0 ARE SEVERE DISCONTINUITY ITERATIONS AND  1 ARE EQUILIBRIUM ITERATIONS.

 TIME INCREMENT COMPLETED   8.00    ,  FRACTION OF STEP COMPLETED  0.120    
 STEP TIME COMPLETED        96.0    ,  TOTAL TIME COMPLETED        7.296E+03


  INCREMENT    13 STARTS. ATTEMPT NUMBER  1, TIME INCREMENT   8.00    
 
	UNSYMMETRIC NEW DIRECT SPARSE SOLVER RUNNING ON
 	1 HOST x 1 MPI RANK PER HOST x 6 THREADS PER RANK
        NUMBER OF EQUATIONS:  168120
        NUMBER OF RHS:        1
        NUMBER OF FLOPS:      2.693e+11
        SOLVER ELAPSED TIME:  1.6s

               CONVERGENCE CHECKS FOR EQUILIBRIUM ITERATION     1


 AVERAGE FORCE                       1.48       TIME AVG. FORCE       0.795    
 LARGEST SCALED RESIDUAL FORCE     -8.724E-07   AT NODE      40755   DOF  2
   INSTANCE: NDBR40-M-1                                                                      
  CORRESPONDING RESIDUAL FORCE     -8.724E-07
 LARGEST INCREMENT OF DISP.         2.001E-05   AT NODE      40537   DOF  2
   INSTANCE: NDBR40-M-1                                                                      
 LARGEST CORRECTION TO DISP.        2.351E-10   AT NODE      40704   DOF  2
   INSTANCE: NDBR40-M-1                                                                      
          THE FORCE     EQUILIBRIUM EQUATIONS HAVE CONVERGED

 AVERAGE HEAT FLUX                  1.750E-16   TIME AVG. HEAT FLUX   1.000E-02
 LARGEST RESIDUAL HEAT FLUX         2.403E-22   AT NODE      40149   DOF 11
   INSTANCE: NDBR40-M-1                                                                      
 LARGEST INCREMENT OF TEMP.        -5.655E-04   AT NODE      32242   DOF 11
   INSTANCE: NDBR40-M-1                                                                      
 LARGEST CORRECTION TO TEMP.       -4.684E-05   AT NODE      31494   DOF 11
   INSTANCE: NDBR40-M-1                                                                      
          THERE IS ZERO HEAT FLUX EVERYWHERE
 

 ***WARNING: THERE IS ZERO HEAT FLUX EVERYWHERE IN THE MODEL BASED ON THE 
             DEFAULT CRITERION. PLEASE CHECK THE VALUE OF THE AVERAGE HEAT FLUX 
             DURING THE CURRENT ITERATION TO VERIFY THAT THE HEAT FLUX IS SMALL 
             ENOUGH TO BE TREATED AS ZERO. IF NOT, PLEASE USE THE SOLUTION 
             CONTROLS TO RESET THE CRITERION FOR ZERO HEAT FLUX.

 MAXIMUM NON-PRESCRIBED INCREMENT IN TEMPERATURE IS  -5.655E-04

 ITERATION SUMMARY FOR THE INCREMENT:   1 TOTAL ITERATIONS, OF WHICH
   0 ARE SEVERE DISCONTINUITY ITERATIONS AND  1 ARE EQUILIBRIUM ITERATIONS.

 TIME INCREMENT COMPLETED   8.00    ,  FRACTION OF STEP COMPLETED  0.130    
 STEP TIME COMPLETED        104.    ,  TOTAL TIME COMPLETED        7.304E+03


  INCREMENT    14 STARTS. ATTEMPT NUMBER  1, TIME INCREMENT   8.00    
 
[...]
 LARGEST INCREMENT OF TEMP.        -0.107       AT NODE       6122   DOF 11
   INSTANCE: NDBR40-M-1                                                                      
 LARGEST CORRECTION TO TEMP.       -3.314E-03   AT NODE      22356   DOF 11
   INSTANCE: NDBR40-M-1                                                                      
          THERE IS ZERO HEAT FLUX EVERYWHERE
 

 ***WARNING: THERE IS ZERO HEAT FLUX EVERYWHERE IN THE MODEL BASED ON THE 
             DEFAULT CRITERION. PLEASE CHECK THE VALUE OF THE AVERAGE HEAT FLUX 
             DURING THE CURRENT ITERATION TO VERIFY THAT THE HEAT FLUX IS SMALL 
             ENOUGH TO BE TREATED AS ZERO. IF NOT, PLEASE USE THE SOLUTION 
             CONTROLS TO RESET THE CRITERION FOR ZERO HEAT FLUX.

 MAXIMUM NON-PRESCRIBED INCREMENT IN TEMPERATURE IS  -0.107    

 ITERATION SUMMARY FOR THE INCREMENT:   2 TOTAL ITERATIONS, OF WHICH
   0 ARE SEVERE DISCONTINUITY ITERATIONS AND  2 ARE EQUILIBRIUM ITERATIONS.

 TIME INCREMENT COMPLETED   8.00    ,  FRACTION OF STEP COMPLETED  0.970    
 STEP TIME COMPLETED        776.    ,  TOTAL TIME COMPLETED        7.976E+03


  INCREMENT   100 STARTS. ATTEMPT NUMBER  1, TIME INCREMENT   8.00    
 
	UNSYMMETRIC NEW DIRECT SPARSE SOLVER RUNNING ON
 	1 HOST x 1 MPI RANK PER HOST x 6 THREADS PER RANK
        NUMBER OF EQUATIONS:  168120
        NUMBER OF RHS:        1
        NUMBER OF FLOPS:      2.693e+11
        SOLVER ELAPSED TIME:  2.7s

               CONVERGENCE CHECKS FOR EQUILIBRIUM ITERATION     1


 AVERAGE FORCE                       2.70       TIME AVG. FORCE        3.02    
 LARGEST SCALED RESIDUAL FORCE     -0.105       AT NODE       4528   DOF  3
   INSTANCE: NDBR40-M-1                                                                      
  CORRESPONDING RESIDUAL FORCE     -0.105    
 LARGEST INCREMENT OF DISP.         2.700E-05   AT NODE       8153   DOF  2
   INSTANCE: NDBR40-M-1                                                                      
 LARGEST CORRECTION TO DISP.        1.442E-06   AT NODE       7602   DOF  1
   INSTANCE: NDBR40-M-1                                                                      
          FORCE     EQUILIBRIUM NOT ACHIEVED WITHIN TOLERANCE.

 AVERAGE HEAT FLUX                  1.419E-15   TIME AVG. HEAT FLUX   1.000E-02
 LARGEST RESIDUAL HEAT FLUX        -1.324E-15   AT NODE      24221   DOF 11
   INSTANCE: NDBR40-M-1                                                                      
 LARGEST INCREMENT OF TEMP.        -0.105       AT NODE       6122   DOF 11
   INSTANCE: NDBR40-M-1                                                                      
 LARGEST CORRECTION TO TEMP.        1.947E-02   AT NODE       6262   DOF 11
   INSTANCE: NDBR40-M-1                                                                      
          THERE IS ZERO HEAT FLUX EVERYWHERE
 

 ***WARNING: THERE IS ZERO HEAT FLUX EVERYWHERE IN THE MODEL BASED ON THE 
             DEFAULT CRITERION. PLEASE CHECK THE VALUE OF THE AVERAGE HEAT FLUX 
             DURING THE CURRENT ITERATION TO VERIFY THAT THE HEAT FLUX IS SMALL 
             ENOUGH TO BE TREATED AS ZERO. IF NOT, PLEASE USE THE SOLUTION 
             CONTROLS TO RESET THE CRITERION FOR ZERO HEAT FLUX.
 
	UNSYMMETRIC NEW DIRECT SPARSE SOLVER RUNNING ON
 	1 HOST x 1 MPI RANK PER HOST x 6 THREADS PER RANK
        NUMBER OF EQUATIONS:  168120
        NUMBER OF RHS:        1
        NUMBER OF FLOPS:      2.693e+11
        SOLVER ELAPSED TIME:  2.7s

               CONVERGENCE CHECKS FOR EQUILIBRIUM ITERATION     2


 AVERAGE FORCE                       2.70       TIME AVG. FORCE        3.02    
 LARGEST SCALED RESIDUAL FORCE      1.639E-02   AT NODE      11890   DOF  3
   INSTANCE: NDBR40-M-1                                                                      
  CORRESPONDING RESIDUAL FORCE      1.639E-02
 LARGEST INCREMENT OF DISP.         2.661E-05   AT NODE       8153   DOF  2
   INSTANCE: NDBR40-M-1                                                                      
 LARGEST CORRECTION TO DISP.       -3.968E-07   AT NODE       8036   DOF  1
   INSTANCE: NDBR40-M-1                                                                      
          FORCE     EQUILIBRIUM NOT ACHIEVED WITHIN TOLERANCE.

 AVERAGE HEAT FLUX                  1.418E-15   TIME AVG. HEAT FLUX   1.000E-02
 LARGEST RESIDUAL HEAT FLUX        -2.159E-15   AT NODE       6043   DOF 11
   INSTANCE: NDBR40-M-1                                                                      
 LARGEST INCREMENT OF TEMP.        -0.105       AT NODE       6122   DOF 11
   INSTANCE: NDBR40-M-1                                                                      
 LARGEST CORRECTION TO TEMP.       -2.095E-03   AT NODE      24221   DOF 11
   INSTANCE: NDBR40-M-1                                                                      
          THERE IS ZERO HEAT FLUX EVERYWHERE
 

 ***WARNING: THERE IS ZERO HEAT FLUX EVERYWHERE IN THE MODEL BASED ON THE 
             DEFAULT CRITERION. PLEASE CHECK THE VALUE OF THE AVERAGE HEAT FLUX 
             DURING THE CURRENT ITERATION TO VERIFY THAT THE HEAT FLUX IS SMALL 
             ENOUGH TO BE TREATED AS ZERO. IF NOT, PLEASE USE THE SOLUTION 
             CONTROLS TO RESET THE CRITERION FOR ZERO HEAT FLUX.
 
	UNSYMMETRIC NEW DIRECT SPARSE SOLVER RUNNING ON
 	1 HOST x 1 MPI RANK PER HOST x 6 THREADS PER RANK
        NUMBER OF EQUATIONS:  168120
        NUMBER OF RHS:        1
        NUMBER OF FLOPS:      2.693e+11
        SOLVER ELAPSED TIME:  2.7s

               CONVERGENCE CHECKS FOR EQUILIBRIUM ITERATION     3


 AVERAGE FORCE                       2.70       TIME AVG. FORCE        3.02    
 LARGEST SCALED RESIDUAL FORCE      5.760E-04   AT NODE       4389   DOF  2
   INSTANCE: NDBR40-M-1                                                                      
  CORRESPONDING RESIDUAL FORCE      5.760E-04
 LARGEST INCREMENT OF DISP.         2.661E-05   AT NODE       8153   DOF  2
   INSTANCE: NDBR40-M-1                                                                      
 LARGEST CORRECTION TO DISP.       -3.394E-08   AT NODE       8152   DOF  1
   INSTANCE: NDBR40-M-1                                                                      
          THE FORCE     EQUILIBRIUM EQUATIONS HAVE CONVERGED

 AVERAGE HEAT FLUX                  1.418E-15   TIME AVG. HEAT FLUX   1.000E-02
 LARGEST RESIDUAL HEAT FLUX         1.063E-17   AT NODE      24365   DOF 11
   INSTANCE: NDBR40-M-1                                                                      
 LARGEST INCREMENT OF TEMP.        -0.105       AT NODE       6122   DOF 11
   INSTANCE: NDBR40-M-1                                                                      
 LARGEST CORRECTION TO TEMP.       -6.840E-03   AT NODE       6043   DOF 11
   INSTANCE: NDBR40-M-1                                                                      
          THERE IS ZERO HEAT FLUX EVERYWHERE
 

 ***WARNING: THERE IS ZERO HEAT FLUX EVERYWHERE IN THE MODEL BASED ON THE 
             DEFAULT CRITERION. PLEASE CHECK THE VALUE OF THE AVERAGE HEAT FLUX 
             DURING THE CURRENT ITERATION TO VERIFY THAT THE HEAT FLUX IS SMALL 
             ENOUGH TO BE TREATED AS ZERO. IF NOT, PLEASE USE THE SOLUTION 
             CONTROLS TO RESET THE CRITERION FOR ZERO HEAT FLUX.

 MAXIMUM NON-PRESCRIBED INCREMENT IN TEMPERATURE IS  -0.105    

 ITERATION SUMMARY FOR THE INCREMENT:   3 TOTAL ITERATIONS, OF WHICH
   0 ARE SEVERE DISCONTINUITY ITERATIONS AND  3 ARE EQUILIBRIUM ITERATIONS.

 TIME INCREMENT COMPLETED   8.00    ,  FRACTION OF STEP COMPLETED  0.980    
 STEP TIME COMPLETED        784.    ,  TOTAL TIME COMPLETED        7.984E+03


  INCREMENT   101 STARTS. ATTEMPT NUMBER  1, TIME INCREMENT   8.00    
 
	UNSYMMETRIC NEW DIRECT SPARSE SOLVER RUNNING ON
 	1 HOST x 1 MPI RANK PER HOST x 6 THREADS PER RANK
        NUMBER OF EQUATIONS:  168120
        NUMBER OF RHS:        1
        NUMBER OF FLOPS:      2.693e+11
        SOLVER ELAPSED TIME:  2.6s

               CONVERGENCE CHECKS FOR EQUILIBRIUM ITERATION     1


 AVERAGE FORCE                       2.66       TIME AVG. FORCE        3.01    
 LARGEST SCALED RESIDUAL FORCE     -9.161E-02   AT NODE       4529   DOF  3
   INSTANCE: NDBR40-M-1                                                                      
  CORRESPONDING RESIDUAL FORCE     -9.161E-02
 LARGEST INCREMENT OF DISP.         2.681E-05   AT NODE       8153   DOF  2
   INSTANCE: NDBR40-M-1                                                                      
 LARGEST CORRECTION TO DISP.        1.527E-06   AT NODE       7548   DOF  1
   INSTANCE: NDBR40-M-1                                                                      
          FORCE     EQUILIBRIUM NOT ACHIEVED WITHIN TOLERANCE.

 AVERAGE HEAT FLUX                  1.392E-15   TIME AVG. HEAT FLUX   1.000E-02
 LARGEST RESIDUAL HEAT FLUX         3.845E-15   AT NODE      13882   DOF 11
   INSTANCE: NDBR40-M-1                                                                      
 LARGEST INCREMENT OF TEMP.        -0.102       AT NODE       6122   DOF 11
   INSTANCE: NDBR40-M-1                                                                      
 LARGEST CORRECTION TO TEMP.        1.537E-02   AT NODE       6262   DOF 11
   INSTANCE: NDBR40-M-1                                                                      
          THERE IS ZERO HEAT FLUX EVERYWHERE
 

 ***WARNING: THERE IS ZERO HEAT FLUX EVERYWHERE IN THE MODEL BASED ON THE 
             DEFAULT CRITERION. PLEASE CHECK THE VALUE OF THE AVERAGE HEAT FLUX 
             DURING THE CURRENT ITERATION TO VERIFY THAT THE HEAT FLUX IS SMALL 
             ENOUGH TO BE TREATED AS ZERO. IF NOT, PLEASE USE THE SOLUTION 
             CONTROLS TO RESET THE CRITERION FOR ZERO HEAT FLUX.
 
	UNSYMMETRIC NEW DIRECT SPARSE SOLVER RUNNING ON
 	1 HOST x 1 MPI RANK PER HOST x 6 THREADS PER RANK
        NUMBER OF EQUATIONS:  168120
        NUMBER OF RHS:        1
        NUMBER OF FLOPS:      2.693e+11
        SOLVER ELAPSED TIME:  2.7s

               CONVERGENCE CHECKS FOR EQUILIBRIUM ITERATION     2


 AVERAGE FORCE                       2.66       TIME AVG. FORCE        3.01    
 LARGEST SCALED RESIDUAL FORCE     -1.057E-02   AT NODE       7958   DOF  3
   INSTANCE: NDBR40-M-1                                                                      
  CORRESPONDING RESIDUAL FORCE     -1.057E-02
 LARGEST INCREMENT OF DISP.         2.643E-05   AT NODE       8153   DOF  2
   INSTANCE: NDBR40-M-1                                                                      
 LARGEST CORRECTION TO DISP.       -3.881E-07   AT NODE       8036   DOF  1
   INSTANCE: NDBR40-M-1                                                                      
 ESTIMATE OF DISP.    CORRECTION   -4.479E-08
 FORCE     EQUILIB. ACCEPTED BASED ON SMALL RESIDUAL AND ESTIMATED CORRECTION

 AVERAGE HEAT FLUX                  1.391E-15   TIME AVG. HEAT FLUX   1.000E-02
 LARGEST RESIDUAL HEAT FLUX         1.705E-16   AT NODE      20709   DOF 11
   INSTANCE: NDBR40-M-1                                                                      
 LARGEST INCREMENT OF TEMP.        -0.102       AT NODE       6122   DOF 11
   INSTANCE: NDBR40-M-1                                                                      
 LARGEST CORRECTION TO TEMP.        6.810E-03   AT NODE      13882   DOF 11
   INSTANCE: NDBR40-M-1                                                                      
          THERE IS ZERO HEAT FLUX EVERYWHERE
 

 ***WARNING: THERE IS ZERO HEAT FLUX EVERYWHERE IN THE MODEL BASED ON THE 
             DEFAULT CRITERION. PLEASE CHECK THE VALUE OF THE AVERAGE HEAT FLUX 
             DURING THE CURRENT ITERATION TO VERIFY THAT THE HEAT FLUX IS SMALL 
             ENOUGH TO BE TREATED AS ZERO. IF NOT, PLEASE USE THE SOLUTION 
             CONTROLS TO RESET THE CRITERION FOR ZERO HEAT FLUX.

 MAXIMUM NON-PRESCRIBED INCREMENT IN TEMPERATURE IS  -0.102    

 ITERATION SUMMARY FOR THE INCREMENT:   2 TOTAL ITERATIONS, OF WHICH
   0 ARE SEVERE DISCONTINUITY ITERATIONS AND  2 ARE EQUILIBRIUM ITERATIONS.

 TIME INCREMENT COMPLETED   8.00    ,  FRACTION OF STEP COMPLETED  0.990    
 STEP TIME COMPLETED        792.    ,  TOTAL TIME COMPLETED        7.992E+03


  INCREMENT   102 STARTS. ATTEMPT NUMBER  1, TIME INCREMENT   8.00    
 
	UNSYMMETRIC NEW DIRECT SPARSE SOLVER RUNNING ON
 	1 HOST x 1 MPI RANK PER HOST x 6 THREADS PER RANK
        NUMBER OF EQUATIONS:  168120
        NUMBER OF RHS:        1
        NUMBER OF FLOPS:      2.693e+11
        SOLVER ELAPSED TIME:  2.7s

               CONVERGENCE CHECKS FOR EQUILIBRIUM ITERATION     1


 AVERAGE FORCE                       2.61       TIME AVG. FORCE        3.01    
 LARGEST SCALED RESIDUAL FORCE     -0.132       AT NODE      10051   DOF  3
   INSTANCE: NDBR40-M-1                                                                      
  CORRESPONDING RESIDUAL FORCE     -0.132    
 LARGEST INCREMENT OF DISP.         2.661E-05   AT NODE       8153   DOF  2
   INSTANCE: NDBR40-M-1                                                                      
 LARGEST CORRECTION TO DISP.        1.502E-06   AT NODE       7521   DOF  1
   INSTANCE: NDBR40-M-1                                                                      
          FORCE     EQUILIBRIUM NOT ACHIEVED WITHIN TOLERANCE.

 AVERAGE HEAT FLUX                  1.363E-15   TIME AVG. HEAT FLUX   1.000E-02
 LARGEST RESIDUAL HEAT FLUX        -1.006E-15   AT NODE      14109   DOF 11
   INSTANCE: NDBR40-M-1                                                                      
 LARGEST INCREMENT OF TEMP.        -9.817E-02   AT NODE       6122   DOF 11
   INSTANCE: NDBR40-M-1                                                                      
 LARGEST CORRECTION TO TEMP.        1.096E-02   AT NODE      13885   DOF 11
   INSTANCE: NDBR40-M-1                                                                      
          THERE IS ZERO HEAT FLUX EVERYWHERE
 

 ***WARNING: THERE IS ZERO HEAT FLUX EVERYWHERE IN THE MODEL BASED ON THE 
             DEFAULT CRITERION. PLEASE CHECK THE VALUE OF THE AVERAGE HEAT FLUX 
             DURING THE CURRENT ITERATION TO VERIFY THAT THE HEAT FLUX IS SMALL 
             ENOUGH TO BE TREATED AS ZERO. IF NOT, PLEASE USE THE SOLUTION 
             CONTROLS TO RESET THE CRITERION FOR ZERO HEAT FLUX.
 
	UNSYMMETRIC NEW DIRECT SPARSE SOLVER RUNNING ON
 	1 HOST x 1 MPI RANK PER HOST x 6 THREADS PER RANK
        NUMBER OF EQUATIONS:  168120
        NUMBER OF RHS:        1
        NUMBER OF FLOPS:      2.693e+11
        SOLVER ELAPSED TIME:  2.7s

               CONVERGENCE CHECKS FOR EQUILIBRIUM ITERATION     2


 AVERAGE FORCE                       2.62       TIME AVG. FORCE        3.01    
 LARGEST SCALED RESIDUAL FORCE      1.720E-02   AT NODE      11889   DOF  3
   INSTANCE: NDBR40-M-1                                                                      
  CORRESPONDING RESIDUAL FORCE      1.720E-02
 LARGEST INCREMENT OF DISP.         2.625E-05   AT NODE       8153   DOF  2
   INSTANCE: NDBR40-M-1                                                                      
 LARGEST CORRECTION TO DISP.       -3.827E-07   AT NODE       8036   DOF  1
   INSTANCE: NDBR40-M-1                                                                      
          FORCE     EQUILIBRIUM NOT ACHIEVED WITHIN TOLERANCE.

 AVERAGE HEAT FLUX                  1.363E-15   TIME AVG. HEAT FLUX   1.000E-02
 LARGEST RESIDUAL HEAT FLUX        -6.061E-16   AT NODE      20267   DOF 11
   INSTANCE: NDBR40-M-1                                                                      
 LARGEST INCREMENT OF TEMP.        -9.805E-02   AT NODE       6122   DOF 11
   INSTANCE: NDBR40-M-1                                                                      
 LARGEST CORRECTION TO TEMP.       -1.535E-03   AT NODE      14109   DOF 11
   INSTANCE: NDBR40-M-1                                                                      
          THERE IS ZERO HEAT FLUX EVERYWHERE
 

 ***WARNING: THERE IS ZERO HEAT FLUX EVERYWHERE IN THE MODEL BASED ON THE 
             DEFAULT CRITERION. PLEASE CHECK THE VALUE OF THE AVERAGE HEAT FLUX 
             DURING THE CURRENT ITERATION TO VERIFY THAT THE HEAT FLUX IS SMALL 
             ENOUGH TO BE TREATED AS ZERO. IF NOT, PLEASE USE THE SOLUTION 
             CONTROLS TO RESET THE CRITERION FOR ZERO HEAT FLUX.
 
	UNSYMMETRIC NEW DIRECT SPARSE SOLVER RUNNING ON
 	1 HOST x 1 MPI RANK PER HOST x 6 THREADS PER RANK
        NUMBER OF EQUATIONS:  168120
        NUMBER OF RHS:        1
        NUMBER OF FLOPS:      2.693e+11
        SOLVER ELAPSED TIME:  2.8s

               CONVERGENCE CHECKS FOR EQUILIBRIUM ITERATION     3


 AVERAGE FORCE                       2.62       TIME AVG. FORCE        3.01    
 LARGEST SCALED RESIDUAL FORCE     -4.797E-04   AT NODE       6124   DOF  2
   INSTANCE: NDBR40-M-1                                                                      
  CORRESPONDING RESIDUAL FORCE     -4.797E-04
 LARGEST INCREMENT OF DISP.         2.625E-05   AT NODE       8153   DOF  2
   INSTANCE: NDBR40-M-1                                                                      
 LARGEST CORRECTION TO DISP.       -2.983E-08   AT NODE       8152   DOF  1
   INSTANCE: NDBR40-M-1                                                                      
          THE FORCE     EQUILIBRIUM EQUATIONS HAVE CONVERGED

 AVERAGE HEAT FLUX                  1.363E-15   TIME AVG. HEAT FLUX   1.000E-02
 LARGEST RESIDUAL HEAT FLUX        -6.239E-18   AT NODE      12103   DOF 11
   INSTANCE: NDBR40-M-1                                                                      
 LARGEST INCREMENT OF TEMP.        -9.808E-02   AT NODE       6122   DOF 11
   INSTANCE: NDBR40-M-1                                                                      
 LARGEST CORRECTION TO TEMP.       -1.049E-03   AT NODE      20267   DOF 11
   INSTANCE: NDBR40-M-1                                                                      
          THERE IS ZERO HEAT FLUX EVERYWHERE
 

 ***WARNING: THERE IS ZERO HEAT FLUX EVERYWHERE IN THE MODEL BASED ON THE 
             DEFAULT CRITERION. PLEASE CHECK THE VALUE OF THE AVERAGE HEAT FLUX 
             DURING THE CURRENT ITERATION TO VERIFY THAT THE HEAT FLUX IS SMALL 
             ENOUGH TO BE TREATED AS ZERO. IF NOT, PLEASE USE THE SOLUTION 
             CONTROLS TO RESET THE CRITERION FOR ZERO HEAT FLUX.

 MAXIMUM NON-PRESCRIBED INCREMENT IN TEMPERATURE IS  -9.808E-02

 ITERATION SUMMARY FOR THE INCREMENT:   3 TOTAL ITERATIONS, OF WHICH
   0 ARE SEVERE DISCONTINUITY ITERATIONS AND  3 ARE EQUILIBRIUM ITERATIONS.

 TIME INCREMENT COMPLETED   8.00    ,  FRACTION OF STEP COMPLETED   1.00    
 STEP TIME COMPLETED        800.    ,  TOTAL TIME COMPLETED        8.000E+03


          THE ANALYSIS HAS BEEN COMPLETED



     ANALYSIS SUMMARY:
     TOTAL OF        107  INCREMENTS
                       0  CUTBACKS IN AUTOMATIC INCREMENTATION
                     252  ITERATIONS INCLUDING CONTACT ITERATIONS IF PRESENT
                     252  PASSES THROUGH THE EQUATION SOLVER OF WHICH 
                     252  INVOLVE MATRIX DECOMPOSITION, INCLUDING
                       0  DECOMPOSITION(S) OF THE MASS MATRIX
                       1  REORDERING OF EQUATIONS TO MINIMIZE WAVEFRONT
                       0  ADDITIONAL RESIDUAL EVALUATIONS FOR LINE SEARCHES
                       0  ADDITIONAL OPERATOR EVALUATIONS FOR LINE SEARCHES
                       6  WARNING MESSAGES DURING USER INPUT PROCESSING
                 7641888  WARNING MESSAGES DURING ANALYSIS
                 7641636  ANALYSIS WARNINGS ARE NUMERICAL PROBLEM MESSAGES
                       0  ANALYSIS WARNINGS ARE NEGATIVE EIGENVALUE MESSAGES
                       0  ERROR MESSAGES



     JOB TIME SUMMARY
       USER TIME (SEC)      =     2.32E+03
       SYSTEM TIME (SEC)    =     2.14E+02
       TOTAL CPU TIME (SEC) =     2.53E+03
       WALLCLOCK TIME (SEC) =         1226
       MEMORY PEAK (GB)     =            1
