 Abaqus/Standard 2023.HF4                  DATE 29-Oct-2024 TIME 12:23:01
 SUMMARY OF JOB INFORMATION:
 STEP  INC ATT SEVERE EQUIL TOTAL  TOTAL      STEP       INC OF       DOF    IF
               DISCON ITERS ITERS  TIME/    TIME/LPF    TIME/LPF    MONITOR RIKS
               ITERS               FREQ
   1     1   1     0     1     1  1.44e+03   1.44e+03   1440.     
   1     2   1     0     1     1  2.88e+03   2.88e+03   1440.     
   1     3   1     0     1     1  4.32e+03   4.32e+03   1440.     
   1     4   1     0     1     1  5.76e+03   5.76e+03   1440.     
   1     5   1     0     1     1  7.20e+03   7.20e+03   1440.     
   2     1   1     0     2     2  7.21e+03   8.00       8.000     
   2     2   1     0     1     1  7.22e+03   16.0       8.000     
   2     3   1     0     1     1  7.22e+03   24.0       8.000     
   2     4   1     0     1     1  7.23e+03   32.0       8.000     
   2     5   1     0     1     1  7.24e+03   40.0       8.000     
   2     6   1     0     1     1  7.25e+03   48.0       8.000     
   2     7   1     0     1     1  7.26e+03   56.0       8.000     
   2     8   1     0     1     1  7.26e+03   64.0       8.000     
   2     9   1     0     1     1  7.27e+03   72.0       8.000     
   2    10   1     0     1     1  7.28e+03   80.0       8.000     
   2    11   1     0     1     1  7.29e+03   88.0       8.000     
   2    12   1     0     1     1  7.30e+03   96.0       8.000     
   2    13   1     0     1     1  7.30e+03   104.       8.000     
   2    14   1     0     1     1  7.31e+03   112.       8.000     
   2    15   1     0     1     1  7.32e+03   120.       8.000     
   2    16   1     0     1     1  7.33e+03   128.       8.000     
   2    17   1     0     1     1  7.34e+03   136.       8.000     
   2    18   1     0     1     1  7.34e+03   144.       8.000     
   2    19   1     0     1     1  7.35e+03   152.       8.000     
   2    20   1     0     1     1  7.36e+03   160.       8.000     
   2    21   1     0     1     1  7.37e+03   168.       8.000     
   2    22   1     0     1     1  7.38e+03   176.       8.000     
   2    23   1     0     1     1  7.38e+03   184.       8.000     
   2    24   1     0     1     1  7.39e+03   192.       8.000     
   2    25   1     0     1     1  7.40e+03   200.       8.000     
   2    26   1     0     1     1  7.41e+03   208.       8.000     
   2    27   1     0     1     1  7.42e+03   216.       8.000     
   2    28   1     0     1     1  7.42e+03   224.       8.000     
   2    29   1     0     1     1  7.43e+03   232.       8.000     
   2    30   1     0     2     2  7.44e+03   240.       8.000     
   2    31   1     0     2     2  7.45e+03   248.       8.000     
   2    32   1     0     3     3  7.46e+03   256.       8.000     
   2    33   1     0     3     3  7.46e+03   264.       8.000     
   2    34   1     0     3     3  7.47e+03   272.       8.000     
   2    35   1     0     4     4  7.48e+03   280.       8.000     
   2    36   1     0     4     4  7.49e+03   288.       8.000     
   2    37   1     0     4     4  7.50e+03   296.       8.000     
   2    38   1     0     3     3  7.50e+03   304.       8.000     
   2    39   1     0     3     3  7.51e+03   312.       8.000     
   2    40   1     0     3     3  7.52e+03   320.       8.000     
   2    41   1     0     3     3  7.53e+03   328.       8.000     
   2    42   1     0     3     3  7.54e+03   336.       8.000     
   2    43   1     0     3     3  7.54e+03   344.       8.000     
   2    44   1     0     3     3  7.55e+03   352.       8.000     
   2    45   1     0     3     3  7.56e+03   360.       8.000     
   2    46   1     0     2     2  7.57e+03   368.       8.000     
   2    47   1     0     2     2  7.58e+03   376.       8.000     
   2    48   1     0     2     2  7.58e+03   384.       8.000     
   2    49   1     0     2     2  7.59e+03   392.       8.000     
   2    50   1     0     2     2  7.60e+03   400.       8.000     
   2    51   1     0     1     1  7.61e+03   408.       8.000     
   2    52   1     0     1     1  7.62e+03   416.       8.000     
   2    53   1     0     1     1  7.62e+03   424.       8.000     
   2    54   1     0     1     1  7.63e+03   432.       8.000     
   2    55   1     0     2     2  7.64e+03   440.       8.000     
   2    56   1     0     3     3  7.65e+03   448.       8.000     
   2    57   1     0     3     3  7.66e+03   456.       8.000     
   2    58   1     0     1     1  7.66e+03   457.       1.000     
   2    59   1     0     2     2  7.66e+03   464.       7.000     
   2    60   1     0     3     3  7.67e+03   472.       8.000     
   2    61   1     0     3     3  7.68e+03   480.       8.000     
   2    62   1     0     3     3  7.69e+03   488.       8.000     
   2    63   1     0     3     3  7.70e+03   496.       8.000     
   2    64   1     0     2     2  7.70e+03   504.       8.000     
   2    65   1     0     2     2  7.71e+03   512.       8.000     
   2    66   1     0     2     2  7.72e+03   520.       8.000     
   2    67   1     0     2     2  7.73e+03   528.       8.000     
   2    68   1     0     2     2  7.74e+03   536.       8.000     
   2    69   1     0     2     2  7.74e+03   544.       8.000     
   2    70   1     0     2     2  7.75e+03   552.       8.000     
   2    71   1     0     3     3  7.76e+03   560.       8.000     
   2    72   1     0     5     5  7.77e+03   568.       8.000     
   2    73   1     0    10    10  7.78e+03   576.       8.000     
   2    74   1     0     9     9  7.78e+03   584.       8.000     
   2    75   1     0     7     7  7.79e+03   592.       8.000     
   2    76   1     0     5     5  7.80e+03   600.       8.000     
   2    77   1     0     4     4  7.81e+03   608.       8.000     
   2    78   1     0     4     4  7.82e+03   616.       8.000     
   2    79   1     0     4     4  7.82e+03   624.       8.000     
   2    80   1     0     3     3  7.83e+03   632.       8.000     
   2    81   1     0     3     3  7.84e+03   640.       8.000     
   2    82   1     0     2     2  7.84e+03   644.       4.000     
   2    83   1     0     2     2  7.85e+03   648.       4.000     
   2    84   1     0     3     3  7.86e+03   656.       8.000     
   2    85   1     0     3     3  7.86e+03   664.       8.000     
   2    86   1     0     3     3  7.87e+03   672.       8.000     
   2    87   1     0     3     3  7.88e+03   680.       8.000     
   2    88   1     0     3     3  7.89e+03   688.       8.000     
   2    89   1     0     3     3  7.90e+03   696.       8.000     
   2    90   1     0     3     3  7.90e+03   704.       8.000     
   2    91   1     0     3     3  7.91e+03   712.       8.000     
   2    92   1     0     4     4  7.92e+03   720.       8.000     
   2    93   1     0     3     3  7.93e+03   728.       8.000     
   2    94   1     0     3     3  7.94e+03   736.       8.000     
   2    95   1     0     3     3  7.94e+03   744.       8.000     
   2    96   1     0     3     3  7.95e+03   752.       8.000     
   2    97   1     0     4     4  7.96e+03   760.       8.000     
   2    98   1     0     2     2  7.97e+03   768.       8.000     
   2    99   1     0     2     2  7.98e+03   776.       8.000     
   2   100   1     0     3     3  7.98e+03   784.       8.000     
   2   101   1     0     2     2  7.99e+03   792.       8.000     
   2   102   1     0     3     3  8.00e+03   800.       8.000     
                          
 THE ANALYSIS HAS COMPLETED SUCCESSFULLY
