*Heading
Full Swing
** ----------------------------------------------------------------
** PART INSTANCE: ARM-1
**
*Node
1, 0.85, 0, -0.0125
2, 0, 0, -0.0125
3, 0, 0.05, -0.0125
4, 0.85, 0.05, -0.0125
5, 0, 0, 0.0175
6, 0.85, 0, 0.0175
7, 0.85, 0.05, 0.0175
8, 0, 0.05, 0.0175
9, 0.85, -0.05, -0.0125
10, 0, -0.05, -0.0125
11, 0, -0.05, 0.0175
12, 0.85, -0.05, 0.0175
13, 0.9, 0, -0.0125
14, -0.05, 0, -0.0125
15, -0.05, 0, 0.0175
16, 0.9, 0, 0.0175
17, 0.68, 0, -0.0125
18, 0.51, 0, -0.0125
19, 0.34, 0, -0.0125
20, 0.17, 0, -0.0125
** ... 85 like lines cut
*Element, type=S4R
1, 1, 17, 73, 26
2, 17, 18, 74, 73
3, 18, 19, 75, 74
4, 19, 20, 76, 75
5, 20, 2, 21, 76
6, 26, 73, 25, 4
7, 73, 74, 24, 25
8, 74, 75, 23, 24
9, 75, 76, 22, 23
10, 76, 21, 3, 22
11, 5, 27, 77, 36
12, 27, 28, 78, 77
13, 28, 29, 79, 78
14, 29, 30, 80, 79
15, 30, 6, 31, 80
16, 36, 77, 35, 8
17, 77, 78, 34, 35
18, 78, 79, 33, 34
19, 79, 80, 32, 33
20, 80, 31, 7, 32
** ... 82 like lines cut
*Nset, nset=ASSEMBLY_ARM-1_ARM-1-REFPT
105
*Elset, elset=ASSEMBLY_ARM-1_ARM-1
1, 2, 3, 4, 5, 6, 7, 8, 9, 10, 11, 12, 13, 14, 15, 16
17, 18, 19, 20, 21, 22, 23, 24, 25, 26, 27, 28, 29, 30, 31, 32
33, 34, 35, 36, 37, 38, 39, 40, 41, 42, 43, 44, 45, 46, 47, 48
49, 50, 51, 52, 53, 54, 55, 56, 57, 58, 59, 60, 61, 62, 63, 64
65, 66, 67, 68, 69, 70, 71, 72, 73, 74, 75, 76, 77, 78, 79, 80
81, 82, 83, 84, 85, 86, 87, 88, 89, 90, 91, 92, 93, 94, 95, 96
97, 98, 99, 100, 101, 102
*shellsection, elset=ASSEMBLY_ARM-1_ARM-1, material=STEEL
3.0E-3, 
** ----------------------------------------------------------------
** PART INSTANCE: GRIP-1
**
*Node
106, 0.85, 0.0125, 0.03
107, 1.1, 0.0075, 0.03
108, 1.1, 1.244837566361e-016, 0.0225
109, 0.85, 1.380839886878e-016, 0.0175
110, 1.1, -0.0075, 0.03
111, 0.85, -0.0125, 0.03
112, 0.85, 1.394717674685e-016, 0.0425
113, 1.1, 1.253164239046e-016, 0.0375
114, 0.85, 1.387778780781e-016, 0.03
115, 1.1, 1.249000902703e-016, 0.03
116, 0.933357, 0.0108329, 0.03
117, 1.0166873, 0.00916625, 0.03
118, 1.1, 0.00658074, 0.02640223
119, 1.1, 0.00400252, 0.0236573
120, 1.0166889, 1.29015957917e-016, 0.02083378
121, 0.933357, 1.335492882948e-016, 0.0191671
122, 0.85, 0.0059427, 0.019003
123, 0.85, 0.0105318, 0.02326715
124, 1.0166879, -0.00916624, 0.03
125, 0.933357, -0.0108329, 0.03
** ... 59 like lines cut
*Element, type=S4R
103, 106, 116, 143, 123
104, 116, 117, 144, 143
105, 117, 107, 118, 144
106, 123, 143, 145, 122
107, 143, 144, 146, 145
108, 144, 118, 119, 146
109, 122, 145, 121, 109
110, 145, 146, 120, 121
111, 146, 119, 108, 120
112, 110, 124, 147, 129
113, 124, 125, 148, 147
114, 125, 111, 126, 148
115, 129, 147, 149, 128
116, 147, 148, 150, 149
117, 148, 126, 127, 150
118, 128, 149, 120, 108
119, 149, 150, 121, 120
120, 150, 127, 109, 121
121, 107, 117, 151, 135
122, 117, 116, 152, 151
** ... 56 like lines cut
*Nset, nset=ASSEMBLY_GRIP-1_GRIP-1-REFPT
184
*Elset, elset=ASSEMBLY_GRIP-1_GRIP-1
103, 104, 105, 106, 107, 108, 109, 110, 111, 112, 113, 114, 115, 116, 117, 118
119, 120, 121, 122, 123, 124, 125, 126, 127, 128, 129, 130, 131, 132, 133, 134
135, 136, 137, 138, 139, 140, 141, 142, 143, 144, 145, 146, 147, 148, 149, 150
151, 152, 153, 154, 155, 156, 157, 158, 159, 160, 161, 162, 163, 164, 165, 166
167, 168, 169, 170, 171, 172, 173, 174, 175, 176, 177, 178
*shellsection, elset=ASSEMBLY_GRIP-1_GRIP-1, material=STEEL
2.0E-3, 
** ----------------------------------------------------------------
** PART INSTANCE: SHAFT-1
**
*Node
884, 1.88, -2.23881594925e-016, 0.03
885, 1.88, -2.23667279425e-016, 0.0265
886, 1.88, 0.0035, 0.03
887, 1.88, -2.24095910425e-016, 0.0335
888, 1.88, -0.0035, 0.03
889, 1.1, -1.76519961626e-016, 0.0365
890, 1.1, -0.0065, 0.03
891, 1.1, -1.75723932626e-016, 0.0235
892, 1.1, 0.0065, 0.03
893, 1.1, -1.76121947126e-016, 0.03
894, 1.88, 0.00175, 0.03
895, 1.88, -2.238101562209e-016, 0.02883333
896, 1.88, -2.237387181291e-016, 0.02766667
897, 1.88, 0.00175, 0.02696891
898, 1.88, 0.00303109, 0.02825
899, 1.88, -0.00175, 0.03
900, 1.88, -2.239530336291e-016, 0.03116667
901, 1.88, -2.240244717209e-016, 0.03233333
902, 1.88, -0.00175, 0.03303109
903, 1.88, -0.00303109, 0.03175
** ... 71 like lines cut
*Element, type=S4R
875, 894, 884, 895, 935
876, 935, 895, 896, 934
877, 896, 885, 897, 934
878, 897, 898, 935, 934
879, 898, 886, 894, 935
880, 899, 884, 900, 937
881, 937, 900, 901, 936
882, 901, 887, 902, 936
883, 902, 903, 937, 936
884, 903, 888, 899, 937
885, 887, 904, 938, 902
886, 904, 905, 939, 938
887, 905, 906, 940, 939
888, 906, 889, 907, 940
889, 902, 938, 941, 903
890, 938, 939, 942, 941
891, 939, 940, 943, 942
892, 940, 907, 908, 943
893, 903, 941, 911, 888
894, 941, 942, 910, 911
** ... 68 like lines cut
*Nset, nset=ASSEMBLY_SHAFT-1_SHAFT-1-REFPT
974
*Elset, elset=ASSEMBLY_SHAFT-1_SHAFT-1
875, 876, 877, 878, 879, 880, 881, 882, 883, 884, 885, 886, 887, 888, 889, 890
891, 892, 893, 894, 895, 896, 897, 898, 899, 900, 901, 902, 903, 904, 905, 906
907, 908, 909, 910, 911, 912, 913, 914, 915, 916, 917, 918, 919, 920, 921, 922
923, 924, 925, 926, 927, 928, 929, 930, 931, 932, 933, 934, 935, 936, 937, 938
939, 940, 941, 942, 943, 944, 945, 946, 947, 948, 949, 950, 951, 952, 953, 954
955, 956, 957, 958, 959, 960, 961, 962
*shellsection, elset=ASSEMBLY_SHAFT-1_SHAFT-1, material=STEEL
1.0E-3, 
** ----------------------------------------------------------------
** PART INSTANCE: HEAD-1
**
*Node
185, 1.879997409758, 0.002500398013056, 0.02550054252398
186, 1.879997402627, 3.980130679716e-007, 0.02550053989611
187, 1.879997883731, 3.932806992629e-007, 0.03000132771698
188, 1.879997896567, 0.004500393280678, 0.03000133244715
189, 1.879997606162, 0.004500395908482, 0.02750218464727
190, 1.879997872207, 3.885506504823e-007, 0.03450124529843
191, 1.879997879338, 0.002500388550639, 0.0345012479263
192, 1.879997781367, 0.004500390654998, 0.03249956074471
193, 1.879997395496, -0.00249960198692, 0.02550053726824
194, 1.879997870896, -0.00449960671928, 0.03000132298681
195, 1.879997580491, -0.004499604091476, 0.02750217518693
196, 1.879997865076, -0.002499611449338, 0.03450124267056
197, 1.879997755695, -0.00449960934496, 0.03249955128437
198, 1.943429601509, 0.004500206018812, 0.03602243591345
199, 1.941515980671, 0.00250021086591, 0.03660400059296
200, 1.95977710722, 0.002500095620543, 0.09668806233827
201, 1.961698490673, 0.0045000907243, 0.09613218703803
202, 1.935466222315, 0.004500234691116, 0.03035479064807
203, 1.935543533299, 0.002500232369941, 0.03235321738103
204, 1.969714536584, 0.00450006434762, 0.09947299545728
** ... 679 like lines cut
*Element, type=S4R
179, 185, 186, 235, 551
180, 235, 236, 552, 551
181, 236, 187, 237, 552
182, 237, 188, 189, 552
183, 552, 189, 185, 551
184, 237, 187, 238, 556
185, 556, 238, 239, 555
186, 555, 239, 240, 554
187, 554, 240, 241, 553
188, 241, 190, 191, 553
189, 188, 237, 556, 243
190, 243, 556, 555, 242
191, 242, 555, 554, 192
192, 192, 554, 553, 191
193, 244, 187, 236, 558
194, 558, 236, 235, 557
195, 235, 186, 193, 557
196, 194, 244, 558, 195
197, 195, 558, 557, 193
198, 196, 190, 241, 559
** ... 676 like lines cut
*Nset, nset=ASSEMBLY_HEAD-1_HEAD-1-REFPT
883
*Elset, elset=ASSEMBLY_HEAD-1_HEAD-1
179, 180, 181, 182, 183, 184, 185, 186, 187, 188, 189, 190, 191, 192, 193, 194
195, 196, 197, 198, 199, 200, 201, 202, 203, 204, 205, 206, 207, 208, 209, 210
211, 212, 213, 214, 215, 216, 217, 218, 219, 220, 221, 222, 223, 224, 225, 226
227, 228, 229, 230, 231, 232, 233, 234, 235, 236, 237, 238, 239, 240, 241, 242
243, 244, 245, 246, 247, 248, 249, 250, 251, 252, 253, 254, 255, 256, 257, 258
259, 260, 261, 262, 263, 264, 265, 266, 267, 268, 269, 270, 271, 272, 273, 274
275, 276, 277, 278, 279, 280, 281, 282, 283, 284, 285, 286, 287, 288, 289, 290
291, 292, 293, 294, 295, 296, 297, 298, 299, 300, 301, 302, 303, 304, 305, 306
307, 308, 309, 310, 311, 312, 313, 314, 315, 316, 317, 318, 319, 320, 321, 322
323, 324, 325, 326, 327, 328, 329, 330, 331, 332, 333, 334, 335, 336, 337, 338
339, 340, 341, 342, 343, 344, 345, 346, 347, 348, 349, 350, 351, 352, 353, 354
355, 356, 357, 358, 359, 360, 361, 362, 363, 364, 365, 366, 367, 368, 369, 370
371, 372, 373, 374, 375, 376, 377, 378, 379, 380, 381, 382, 383, 384, 385, 386
387, 388, 389, 390, 391, 392, 393, 394, 395, 396, 397, 398, 399, 400, 401, 402
403, 404, 405, 406, 407, 408, 409, 410, 411, 412, 413, 414, 415, 416, 417, 418
419, 420, 421, 422, 423, 424, 425, 426, 427, 428, 429, 430, 431, 432, 433, 434
435, 436, 437, 438, 439, 440, 441, 442, 443, 444, 445, 446, 447, 448, 449, 450
451, 452, 453, 454, 455, 456, 457, 458, 459, 460, 461, 462, 463, 464, 465, 466
467, 468, 469, 470, 471, 472, 473, 474, 475, 476, 477, 478, 479, 480, 481, 482
483, 484, 485, 486, 487, 488, 489, 490, 491, 492, 493, 494, 495, 496, 497, 498
** ... 24 like lines cut
*shellsection, elset=ASSEMBLY_HEAD-1_HEAD-1, material=STEEL
3.0E-3, 
*rigidbody, refnode=ASSEMBLY_ARM-1_ARM-1-REFPT, position=CENTEROFMASS, elset=ASSEMBLY_ARM-1_ARM-1
*rigidbody, refnode=ASSEMBLY_GRIP-1_GRIP-1-REFPT, position=CENTEROFMASS, elset=ASSEMBLY_GRIP-1_GRIP-1
*rigidbody, refnode=ASSEMBLY_SHAFT-1_SHAFT-1-REFPT, position=CENTEROFMASS, elset=ASSEMBLY_SHAFT-1_SHAFT-1
*rigidbody, refnode=ASSEMBLY_HEAD-1_HEAD-1-REFPT, position=CENTEROFMASS, elset=ASSEMBLY_HEAD-1_HEAD-1
**
** Assembly Nsets
**
*Nset, nset=ASSEMBLY_JOINTNODES
2, 6, 187, 114, 115, 884, 893
*material, name=STEEL
*elastic
210.0E9, 0.3
*density
7800.0, 
**
********************************************************
**                 Define Orientations                **
********************************************************


********************************************************
**            Define Connectors and Sections          **
********************************************************


********************************************************
**   Define Amplitude Curves for Prescribed Motion    **
********************************************************


*Step, name=Swing, nlgeom, inc=100
Full Swing
*static
0.1, 2.0, , 0.05
********************************************************
**               Define Connector Motions             **
********************************************************


*output, field, frequency=1
*nodeoutput
U, 
*output, history, frequency=1
*elementoutput, elset=SHOULDER
CP, CU
*elementoutput, elset=WRIST
CP, CU
*elprint, frequency=0
*nodeprint, frequency=0
*endstep
