*Heading
**
** 45 degree frame quasi static crush
**
*SECTION CONTROLS, NAME=Controls-Stiffness, HOURGLASS=STIFFNESS
**
*Node, Nset=Structure-Nset
1, 1000, 200.0001, 1
2, 1000, 185, 1
3, 658, 185, 1
4, 658, 200.0001, 1
5, 1000, 179.4, 6.6
6, 658, 179.4, 6.6
7, 1000, 179.4, 45.4
8, 658, 179.4, 45.4
9, 1000, 173.8, 51
10, 658, 173.8, 51
11, 1000, 126.2, 51
12, 658, 126.2, 51
13, 1000, 120.6, 45.4
14, 658, 120.6, 45.4
15, 1000, 120.6, 6.6
16, 658, 120.6, 6.6
17, 1000, 115, 1
18, 658, 115, 1
19, 1000, 100.0001, 1
20, 658, 100.0001, 1
** ... 17272 like lines cut
**
*Node, nset=SPOTWELD-RefNODES
17294, 342, -40, 0
17295, 302, 40, 0
17296, 302, -40, 0
17297, 262, 40, 0
17298, 262, -40, 0
17299, 222, 40, 0
17300, 222, -40, 0
17301, 182, 40, 0
17302, 182, -40, 0
17303, 142, 40, 0
17304, 142, -40, 0
17305, 102, 40, 0
17306, 102, -40, 0
17307, 62, 40, 0
17308, 62, -40, 0
17309, 22, 40, 0
17310, 22, -40, 0
17311, 658, 190, 0
17312, 658, 110, 0
17313, 698, 190, 0
** ... 34 like lines cut
**
*Element, type=S4RS
1, 1, 73, 3201, 210
2, 73, 74, 3202, 3201
3, 74, 2, 75, 3202
4, 210, 3201, 3203, 209
5, 3201, 3202, 3204, 3203
6, 3202, 75, 76, 3204
7, 209, 3203, 3205, 208
8, 3203, 3204, 3206, 3205
9, 3204, 76, 77, 3206
10, 208, 3205, 3207, 207
11, 3205, 3206, 3208, 3207
12, 3206, 77, 78, 3208
13, 207, 3207, 3209, 206
14, 3207, 3208, 3210, 3209
15, 3208, 78, 79, 3210
16, 206, 3209, 3211, 205
17, 3209, 3210, 3212, 3211
18, 3210, 79, 80, 3212
19, 205, 3211, 3213, 204
20, 3211, 3212, 3214, 3213
** ... 16736 like lines cut
*Nset, nset=ENDA
51, 52, 53, 54, 55, 56, 57, 58, 59, 60, 71, 72, 1995, 1996, 2131, 2132
2133, 2201, 2202, 2203, 2204, 2205, 2206, 2207, 2275, 2276, 2277, 2345, 2346, 2347, 2348, 2349
2350, 2351, 2352, 2353, 2421, 2422, 2423, 2491, 2492, 2493, 2494, 2495, 2496, 2497, 2498, 2499
2567, 2568, 2569, 2637, 2638, 3113, 3114, 3115, 3116, 3117, 3118, 3119, 3120, 3121, 3122, 3123
3124, 3125, 3126, 3127, 3128, 3129, 3130, 3131, 3132, 3133
*Nset, nset=ENDA_MPCNODE
17291,
**
*MPC
BEAM, ENDA, 17291
**
*Nset, nset=ENDB
1, 2, 5, 7, 9, 11, 13, 15, 17, 19, 61, 62, 73, 74, 211, 212
213, 284, 285, 286, 287, 288, 289, 290, 365, 366, 367, 438, 439, 440, 441, 442
443, 444, 445, 446, 523, 524, 525, 596, 597, 598, 599, 600, 601, 602, 603, 604
681, 682, 683, 754, 755, 2639, 2640, 2641, 2642, 2643, 2644, 2645, 2646, 2647, 2648, 2649
2650, 2651, 2652, 2653, 2654, 2655, 2656, 2657, 2658, 2659
*Nset, nset=ENDB_MPCNODE
17292,
**
*MPC
BEAM, ENDB, 17292
**
*Boundary
ENDA_MPCNODE, 1, 6
ENDB_MPCNODE, 2, 6
**
*Elset, elset=HAT
1, 2, 3, 4, 5, 6, 7, 8, 9, 10, 11, 12, 13, 14, 15, 16
17, 18, 19, 20, 21, 22, 23, 24, 25, 26, 27, 28, 29, 30, 31, 32
33, 34, 35, 36, 37, 38, 39, 40, 41, 42, 43, 44, 45, 46, 47, 48
49, 50, 51, 52, 53, 54, 55, 56, 57, 58, 59, 60, 61, 62, 63, 64
65, 66, 67, 68, 69, 70, 71, 72, 73, 74, 75, 76, 77, 78, 79, 80
81, 82, 83, 84, 85, 86, 87, 88, 89, 90, 91, 92, 93, 94, 95, 96
97, 98, 99, 100, 101, 102, 103, 104, 105, 106, 107, 108, 109, 110, 111, 112
113, 114, 115, 116, 117, 118, 119, 120, 121, 122, 123, 124, 125, 126, 127, 128
129, 130, 131, 132, 133, 134, 135, 136, 137, 138, 139, 140, 141, 142, 143, 144
145, 146, 147, 148, 149, 150, 151, 152, 153, 154, 155, 156, 157, 158, 159, 160
161, 162, 163, 164, 165, 166, 167, 168, 169, 170, 171, 172, 173, 174, 175, 176
177, 178, 179, 180, 181, 182, 183, 184, 185, 186, 187, 188, 189, 190, 191, 192
193, 194, 195, 196, 197, 198, 199, 200, 201, 202, 203, 204, 205, 206, 207, 208
209, 210, 211, 212, 213, 214, 215, 216, 217, 218, 219, 220, 221, 222, 223, 224
225, 226, 227, 228, 229, 230, 231, 232, 233, 234, 235, 236, 237, 238, 239, 240
241, 242, 243, 244, 245, 246, 247, 248, 249, 250, 251, 252, 253, 254, 255, 256
257, 258, 259, 260, 261, 262, 263, 264, 265, 266, 267, 268, 269, 270, 271, 272
273, 274, 275, 276, 277, 278, 279, 280, 281, 282, 283, 284, 285, 286, 287, 288
289, 290, 291, 292, 293, 294, 295, 296, 297, 298, 299, 300, 301, 302, 303, 304
305, 306, 307, 308, 309, 310, 311, 312, 313, 314, 315, 316, 317, 318, 319, 320
** ... 721 like lines cut
**
*Surface, Name=Hat-Surface
HAT,
**
*Elset, elset=PLATE
11851, 11852, 11853, 11854, 11855, 11856, 11857, 11858, 11859, 11860, 11861, 11862, 11863, 11864, 11865, 11866
11867, 11868, 11869, 11870, 11871, 11872, 11873, 11874, 11875, 11876, 11877, 11878, 11879, 11880, 11881, 11882
11883, 11884, 11885, 11886, 11887, 11888, 11889, 11890, 11891, 11892, 11893, 11894, 11895, 11896, 11897, 11898
11899, 11900, 11901, 11902, 11903, 11904, 11905, 11906, 11907, 11908, 11909, 11910, 11911, 11912, 11913, 11914
11915, 11916, 11917, 11918, 11919, 11920, 11921, 11922, 11923, 11924, 11925, 11926, 11927, 11928, 11929, 11930
11931, 11932, 11933, 11934, 11935, 11936, 11937, 11938, 11939, 11940, 11941, 11942, 11943, 11944, 11945, 11946
11947, 11948, 11949, 11950, 11951, 11952, 11953, 11954, 11955, 11956, 11957, 11958, 11959, 11960, 11961, 11962
11963, 11964, 11965, 11966, 11967, 11968, 11969, 11970, 11971, 11972, 11973, 11974, 11975, 11976, 11977, 11978
11979, 11980, 11981, 11982, 11983, 11984, 11985, 11986, 11987, 11988, 11989, 11990, 11991, 11992, 11993, 11994
11995, 11996, 11997, 11998, 11999, 12000, 12001, 12002, 12003, 12004, 12005, 12006, 12007, 12008, 12009, 12010
12011, 12012, 12013, 12014, 12015, 12016, 12017, 12018, 12019, 12020, 12021, 12022, 12023, 12024, 12025, 12026
12027, 12028, 12029, 12030, 12031, 12032, 12033, 12034, 12035, 12036, 12037, 12038, 12039, 12040, 12041, 12042
12043, 12044, 12045, 12046, 12047, 12048, 12049, 12050, 12051, 12052, 12053, 12054, 12055, 12056, 12057, 12058
12059, 12060, 12061, 12062, 12063, 12064, 12065, 12066, 12067, 12068, 12069, 12070, 12071, 12072, 12073, 12074
12075, 12076, 12077, 12078, 12079, 12080, 12081, 12082, 12083, 12084, 12085, 12086, 12087, 12088, 12089, 12090
12091, 12092, 12093, 12094, 12095, 12096, 12097, 12098, 12099, 12100, 12101, 12102, 12103, 12104, 12105, 12106
12107, 12108, 12109, 12110, 12111, 12112, 12113, 12114, 12115, 12116, 12117, 12118, 12119, 12120, 12121, 12122
12123, 12124, 12125, 12126, 12127, 12128, 12129, 12130, 12131, 12132, 12133, 12134, 12135, 12136, 12137, 12138
12139, 12140, 12141, 12142, 12143, 12144, 12145, 12146, 12147, 12148, 12149, 12150, 12151, 12152, 12153, 12154
12155, 12156, 12157, 12158, 12159, 12160, 12161, 12162, 12163, 12164, 12165, 12166, 12167, 12168, 12169, 12170
** ... 287 like lines cut
**
*Surface, Name=Plate-Surface
PLATE,
**
*Shellsection, elset=HAT, material=MATERIAL-HAT, CONTROLS=Controls-Stiffness 
1.2, 
*Shellsection, elset=PLATE, material=MATERIAL-PLATE, CONTROLS=Controls-Stiffness
0.8, 5
**
*FASTENER, INTERACTION NAME=Join-Plates, PROPERTY=Rigid, REFERENCE NODE SET=Spotweld-RefNodes

HAT-Surface, PLATE-Surface
**
*FASTENER PROPERTY, NAME=Rigid
3.5,
1, 6
**
*Material, name=MATERIAL-HAT
*Density
7.96E-10, 
*Elastic
21000., 0.3
*Plastic
18.4,		0
19.2,		0.003381
20.2,		0.008097
21.9882,	0.016129
24.2769,	0.026739
25.8977,	0.035278
28.1991,	0.050208
28.7879,	0.054067
29.8989,	0.062376
31.1615,	0.075027
32.4072,	0.089379
35.4316,	0.133616
37.1236,	0.162824
38.2422,	0.183901
39.2629,	0.204543
41.6043,	0.262468
42.3932,	0.283609
42.9573,	0.309296
43.1842,	0.334826
**
*Material, name=MATERIAL-PLATE
*Density
7.96E-10, 
*elastic
21000., 0.3
*plastic
16.5	,0
17.2164	,0.003364
19.9452	,0.016706
22.2449	,0.027908
23.8764	,0.03769
25.0267	,0.044159
27.1467	,0.059514
30.1501	,0.087685
31.3695	,0.102999
33.8039	,0.139996
35.519	,0.171141
38.3828	,0.230662
39.7382	,0.265366
40.9709	,0.304885
41.466	,0.341944
**
***********************************************************
** ADD AMPLITUDE DEFINITION
**
**
***********************************************************
** ADD INTERIOR CROSS-SECTION SURFACE DEFINITIONS
**
**
*NODE, NSET=NODE-1
99991, 170.0,   0.0, 25.5
*NODE, NSET=NODE-2
99992, 500.0,  75.0, 25.5
*NODE, NSET=NODE-3
99993, 830.0, 150.0, 25.5
*ORIENTATION, NAME=ORI-2
1.0, 1.0, 0.0, -1.0, 1.0, 0.0
***********************************************************
** ADD INTEGRATED OUTPUT SECTION DEFINITIONS
**
**
**
*NSET, NSET=A-OUT
7944, 8980, 6843
**
*STEP, NAME=STEP-
*DYNAMIC, EXPLICIT, ELEMENT BY ELEMENT
, 0.01
**
*BOUNDARY, AMPLITUDE=SMOOTH, TYPE=DISPLACEMENT
ENDB_MPCNODE, 1, 1, -1.0
*CONTACT
*CONTACT INCLUSIONS, ALL EXTERIOR
**
***********************************************************
** ADD FIELD OUTPUT DEFINITION
**
**
***********************************************************
** ADD HISTORY OUTPUT DEFINITIONS
**
**
**
*MONITOR, DOF=1, NODE=17292
**
*END STEP
