1

   Abaqus 2023.HF4                                  Date 09-Jun-2024   Time 16:32:31
   For use by AALTO UNIVERSITY under license from Dassault Systemes or its subsidiary.

                                                                                 
                                                                                 
 STEP    1     INCREMENT     1     STEP TIME    0.00    


                        S T E P       1     S T A T I C   A N A L Y S I S


                                                                                          

     AUTOMATIC TIME CONTROL WITH -
          A SUGGESTED INITIAL TIME INCREMENT OF                 10.0    
          AND A TOTAL TIME PERIOD OF                           1.000E+03
          THE MINIMUM TIME INCREMENT ALLOWED IS                1.000E-05
          THE MAXIMUM TIME INCREMENT ALLOWED IS                 10.0    

     LINEAR EQUATION SOLVER TYPE         DIRECT SPARSE

 CONVERGENCE TOLERANCE PARAMETERS FOR FORCE    
     CRITERION FOR RESIDUAL FORCE     FOR A NONLINEAR PROBLEM          5.000E-03
     CRITERION FOR DISP.    CORRECTION IN A NONLINEAR PROBLEM          1.000E-02
     INITIAL VALUE OF TIME AVERAGE FORCE                               1.000E-02
     AVERAGE FORCE     IS TIME AVERAGE FORCE    
     ALTERNATE CRIT. FOR RESIDUAL FORCE     FOR A NONLINEAR PROBLEM    2.000E-02
     CRITERION FOR ZERO FORCE     RELATIVE TO TIME AVRG. FORCE         1.000E-05
     CRITERION FOR RESIDUAL FORCE     WHEN THERE IS ZERO FLUX          1.000E-05
     CRITERION FOR DISP.    CORRECTION WHEN THERE IS ZERO FLUX         1.000E-03
     CRITERION FOR RESIDUAL FORCE     FOR A LINEAR INCREMENT           1.000E-08
     FIELD CONVERSION RATIO                                             1.00    
     CRITERION FOR ZERO FORCE     REL. TO TIME AVRG. MAX. FORCE        1.000E-05
     CRITERION FOR ZERO DISP.    RELATIVE TO CHARACTERISTIC LENGTH     1.000E-08

     VOLUMETRIC STRAIN COMPATIBILITY TOLERANCE FOR HYBRID SOLIDS       1.000E-05
     AXIAL STRAIN COMPATIBILITY TOLERANCE FOR HYBRID BEAMS             1.000E-05
     TRANS. SHEAR STRAIN COMPATIBILITY TOLERANCE FOR HYBRID BEAMS      1.000E-05
     SOFT CONTACT CONSTRAINT COMPATIBILITY TOLERANCE FOR P>P0          5.000E-03
     SOFT CONTACT CONSTRAINT COMPATIBILITY TOLERANCE FOR P=0.0         0.100    
     CONTACT FORCE ERROR TOLERANCE FOR CONVERT SDI=YES                 1.00    
     DISPLACEMENT COMPATIBILITY TOLERANCE FOR DCOUP ELEMENTS           1.000E-05
     ROTATION COMPATIBILITY TOLERANCE FOR DCOUP ELEMENTS               1.000E-05

 EQUILIBRIUM WILL BE CHECKED FOR SEVERE DISCONTINUITY ITERATIONS

 TIME INCREMENTATION CONTROL PARAMETERS:
     FIRST EQUILIBRIUM ITERATION FOR CONSECUTIVE DIVERGENCE CHECK              4
     EQUILIBRIUM ITERATION AT WHICH LOG. CONVERGENCE RATE CHECK BEGINS         8
     EQUILIBRIUM ITERATION AFTER WHICH ALTERNATE RESIDUAL IS USED              9
     MAXIMUM EQUILIBRIUM ITERATIONS ALLOWED                                   16
     EQUILIBRIUM ITERATION COUNT FOR CUT-BACK IN NEXT INCREMENT               10
     MAXIMUM EQUILIB. ITERS IN TWO INCREMENTS FOR TIME INCREMENT INCREASE      4
     MAXIMUM ITERATIONS FOR SEVERE DISCONTINUITIES                            50
     MAXIMUM ATTEMPTS ALLOWED IN AN INCREMENT                                  5
     MAXIMUM DISCON. ITERS IN TWO INCREMENTS FOR TIME INCREMENT INCREASE      50
     MAXIMUM CONTACT AUGMENTATIONS FOR *SURFACE BEHAVIOR,AUGMENTED LAGRANGE   50
     CUT-BACK FACTOR AFTER DIVERGENCE                                 0.2500    
     CUT-BACK FACTOR FOR TOO SLOW CONVERGENCE                         0.5000    
     CUT-BACK FACTOR AFTER TOO MANY EQUILIBRIUM ITERATIONS            0.7500    
     CUT-BACK FACTOR AFTER TOO MANY SEVERE DISCONTINUITY ITERATIONS   0.2500    
     CUT-BACK FACTOR AFTER PROBLEMS IN ELEMENT ASSEMBLY               0.2500    
     INCREASE FACTOR AFTER TWO INCREMENTS THAT CONVERGE QUICKLY        1.500    
     MAX. TIME INCREMENT INCREASE FACTOR ALLOWED                       1.500    
     MAX. TIME INCREMENT INCREASE FACTOR ALLOWED (DYNAMICS)            1.250    
     MAX. TIME INCREMENT INCREASE FACTOR ALLOWED (DIFFUSION)           2.000    
     MINIMUM TIME INCREMENT RATIO FOR EXTRAPOLATION TO OCCUR          0.1000    
     MAX. RATIO OF TIME INCREMENT TO STABILITY LIMIT                   1.000    
     FRACTION OF STABILITY LIMIT FOR NEW TIME INCREMENT               0.9500    
     TIME INCREMENT INCREASE FACTOR BEFORE A TIME POINT                1.000    
     GLOBAL STABILIZATION CONTROL IS NOT USED

          PRINT OF INCREMENT NUMBER, TIME, ETC., EVERY    1  INCREMENTS

     THE MAXIMUM NUMBER OF INCREMENTS IN THIS STEP IS                  100000

          LARGE DISPLACEMENT THEORY WILL BE USED

     LINEAR EXTRAPOLATION WILL BE USED

     CHARACTERISTIC ELEMENT LENGTH     2.134E-04

     DETAILS REGARDING ACTUAL SOLUTION WAVEFRONT REQUESTED

     DETAILED OUTPUT OF DIAGNOSTICS TO DATABASE REQUESTED

     PRINT OF INCREMENT NUMBER, TIME, ETC., TO THE MESSAGE FILE EVERY     1  INCREMENTS

     ELEMENT OPERATIONS WILL BE CARRIED OUT IN PARALLEL USING   8 THREADS ON 1 DOMAIN

     PARALLEL CONTACT TRACKING ENABLED


     COLLECTING MODEL CONSTRAINT INFORMATION FOR OVERCONSTRAINT CHECKS

     COLLECTING STEP CONSTRAINT INFORMATION FOR OVERCONSTRAINT CHECKS


  INCREMENT     1 STARTS. ATTEMPT NUMBER  1, TIME INCREMENT   10.0    
 
     INITIAL ELEMENT LOAD BALANCE
            DOMAIN    1     THREAD    NUMBER OF ELEMENTS
                              1            3992
                              2            3904
                              3            4336
                              4            4592
                              5            3896
                              6            4233
                              7            4128
                              8            4672
 
	SYMMETRIC NEW DIRECT SPARSE SOLVER RUNNING ON
 	1 HOST x 1 MPI RANK PER HOST x 8 THREADS PER RANK
        NUMBER OF EQUATIONS:  126306
        NUMBER OF RHS:        1
        NUMBER OF FLOPS:      5.568e+10
        SOLVER ELAPSED TIME:  332ms

               CONVERGENCE CHECKS FOR EQUILIBRIUM ITERATION     1


 AVERAGE FORCE                      7.122E-02   TIME AVG. FORCE       7.122E-02
 LARGEST SCALED RESIDUAL FORCE      1.415E-03   AT NODE       1725   DOF  3
   INSTANCE: NDBR6-M-1                                                                       
  CORRESPONDING RESIDUAL FORCE      1.415E-03
 LARGEST INCREMENT OF DISP.         1.500E-05   AT NODE         21   DOF  2
   INSTANCE: NDBR6-M-1                                                                       
 LARGEST CORRECTION TO DISP.        1.500E-05   AT NODE         21   DOF  2
   INSTANCE: NDBR6-M-1                                                                       
          FORCE     EQUILIBRIUM NOT ACHIEVED WITHIN TOLERANCE.
 
	SYMMETRIC NEW DIRECT SPARSE SOLVER RUNNING ON
 	1 HOST x 1 MPI RANK PER HOST x 8 THREADS PER RANK
        NUMBER OF EQUATIONS:  126306
        NUMBER OF RHS:        1
        NUMBER OF FLOPS:      5.568e+10
        SOLVER ELAPSED TIME:  337ms

               CONVERGENCE CHECKS FOR EQUILIBRIUM ITERATION     2


 AVERAGE FORCE                      7.122E-02   TIME AVG. FORCE       7.122E-02
 LARGEST SCALED RESIDUAL FORCE     -1.769E-08   AT NODE        476   DOF  2
   INSTANCE: NDBR6-M-1                                                                       
  CORRESPONDING RESIDUAL FORCE     -1.769E-08
 LARGEST INCREMENT OF DISP.         1.500E-05   AT NODE         21   DOF  2
   INSTANCE: NDBR6-M-1                                                                       
 LARGEST CORRECTION TO DISP.        6.818E-11   AT NODE        342   DOF  2
   INSTANCE: NDBR6-M-1                                                                       
          THE FORCE     EQUILIBRIUM EQUATIONS HAVE CONVERGED

 ITERATION SUMMARY FOR THE INCREMENT:   2 TOTAL ITERATIONS, OF WHICH
   0 ARE SEVERE DISCONTINUITY ITERATIONS AND  2 ARE EQUILIBRIUM ITERATIONS.

 TIME INCREMENT COMPLETED   10.0    ,  FRACTION OF STEP COMPLETED  1.000E-02
 STEP TIME COMPLETED        10.0    ,  TOTAL TIME COMPLETED         10.0    


  INCREMENT     2 STARTS. ATTEMPT NUMBER  1, TIME INCREMENT   10.0    
 
	SYMMETRIC NEW DIRECT SPARSE SOLVER RUNNING ON
 	1 HOST x 1 MPI RANK PER HOST x 8 THREADS PER RANK
        NUMBER OF EQUATIONS:  126306
        NUMBER OF RHS:        1
        NUMBER OF FLOPS:      5.568e+10
        SOLVER ELAPSED TIME:  347ms

               CONVERGENCE CHECKS FOR EQUILIBRIUM ITERATION     1


 AVERAGE FORCE                      0.158       TIME AVG. FORCE       0.114    
 LARGEST SCALED RESIDUAL FORCE     -4.052E-08   AT NODE       2205   DOF  2
   INSTANCE: NDBR6-M-1                                                                       
  CORRESPONDING RESIDUAL FORCE     -4.052E-08
 LARGEST INCREMENT OF DISP.         1.500E-05   AT NODE         21   DOF  2
   INSTANCE: NDBR6-M-1                                                                       
 LARGEST CORRECTION TO DISP.        1.299E-10   AT NODE        342   DOF  2
   INSTANCE: NDBR6-M-1                                                                       
          THE FORCE     EQUILIBRIUM EQUATIONS HAVE CONVERGED

 ITERATION SUMMARY FOR THE INCREMENT:   1 TOTAL ITERATIONS, OF WHICH
   0 ARE SEVERE DISCONTINUITY ITERATIONS AND  1 ARE EQUILIBRIUM ITERATIONS.

 TIME INCREMENT COMPLETED   10.0    ,  FRACTION OF STEP COMPLETED  2.000E-02
 STEP TIME COMPLETED        20.0    ,  TOTAL TIME COMPLETED         20.0    


  INCREMENT     3 STARTS. ATTEMPT NUMBER  1, TIME INCREMENT   10.0    
 
	SYMMETRIC NEW DIRECT SPARSE SOLVER RUNNING ON
 	1 HOST x 1 MPI RANK PER HOST x 8 THREADS PER RANK
        NUMBER OF EQUATIONS:  126306
        NUMBER OF RHS:        1
        NUMBER OF FLOPS:      5.568e+10
        SOLVER ELAPSED TIME:  341ms

               CONVERGENCE CHECKS FOR EQUILIBRIUM ITERATION     1


 AVERAGE FORCE                      0.237       TIME AVG. FORCE       0.155    
 LARGEST SCALED RESIDUAL FORCE     -7.213E-08   AT NODE       2205   DOF  2
   INSTANCE: NDBR6-M-1                                                                       
  CORRESPONDING RESIDUAL FORCE     -7.213E-08
 LARGEST INCREMENT OF DISP.         1.500E-05   AT NODE         21   DOF  2
   INSTANCE: NDBR6-M-1                                                                       
 LARGEST CORRECTION TO DISP.        1.299E-10   AT NODE        342   DOF  2
   INSTANCE: NDBR6-M-1                                                                       
          THE FORCE     EQUILIBRIUM EQUATIONS HAVE CONVERGED

 ITERATION SUMMARY FOR THE INCREMENT:   1 TOTAL ITERATIONS, OF WHICH
   0 ARE SEVERE DISCONTINUITY ITERATIONS AND  1 ARE EQUILIBRIUM ITERATIONS.

 TIME INCREMENT COMPLETED   10.0    ,  FRACTION OF STEP COMPLETED  3.000E-02
 STEP TIME COMPLETED        30.0    ,  TOTAL TIME COMPLETED         30.0    


  INCREMENT     4 STARTS. ATTEMPT NUMBER  1, TIME INCREMENT   10.0    
 
	SYMMETRIC NEW DIRECT SPARSE SOLVER RUNNING ON
 	1 HOST x 1 MPI RANK PER HOST x 8 THREADS PER RANK
        NUMBER OF EQUATIONS:  126306
        NUMBER OF RHS:        1
        NUMBER OF FLOPS:      5.568e+10
        SOLVER ELAPSED TIME:  340ms

               CONVERGENCE CHECKS FOR EQUILIBRIUM ITERATION     1


 AVERAGE FORCE                      0.315       TIME AVG. FORCE       0.195    
 LARGEST SCALED RESIDUAL FORCE     -1.037E-07   AT NODE       2205   DOF  2
   INSTANCE: NDBR6-M-1                                                                       
  CORRESPONDING RESIDUAL FORCE     -1.037E-07
 LARGEST INCREMENT OF DISP.         1.500E-05   AT NODE         21   DOF  2
   INSTANCE: NDBR6-M-1                                                                       
 LARGEST CORRECTION TO DISP.        1.299E-10   AT NODE        342   DOF  2
   INSTANCE: NDBR6-M-1                                                                       
          THE FORCE     EQUILIBRIUM EQUATIONS HAVE CONVERGED

 ITERATION SUMMARY FOR THE INCREMENT:   1 TOTAL ITERATIONS, OF WHICH
   0 ARE SEVERE DISCONTINUITY ITERATIONS AND  1 ARE EQUILIBRIUM ITERATIONS.

 TIME INCREMENT COMPLETED   10.0    ,  FRACTION OF STEP COMPLETED  4.000E-02
 STEP TIME COMPLETED        40.0    ,  TOTAL TIME COMPLETED         40.0    


  INCREMENT     5 STARTS. ATTEMPT NUMBER  1, TIME INCREMENT   10.0    
 
	SYMMETRIC NEW DIRECT SPARSE SOLVER RUNNING ON
 	1 HOST x 1 MPI RANK PER HOST x 8 THREADS PER RANK
        NUMBER OF EQUATIONS:  126306
        NUMBER OF RHS:        1
        NUMBER OF FLOPS:      5.568e+10
        SOLVER ELAPSED TIME:  351ms

               CONVERGENCE CHECKS FOR EQUILIBRIUM ITERATION     1


 AVERAGE FORCE                      0.394       TIME AVG. FORCE       0.235    
 LARGEST SCALED RESIDUAL FORCE     -1.353E-07   AT NODE       2205   DOF  2
   INSTANCE: NDBR6-M-1                                                                       
  CORRESPONDING RESIDUAL FORCE     -1.353E-07
 LARGEST INCREMENT OF DISP.         1.500E-05   AT NODE         21   DOF  2
   INSTANCE: NDBR6-M-1                                                                       
 LARGEST CORRECTION TO DISP.        1.299E-10   AT NODE        342   DOF  2
   INSTANCE: NDBR6-M-1                                                                       
          THE FORCE     EQUILIBRIUM EQUATIONS HAVE CONVERGED

 ITERATION SUMMARY FOR THE INCREMENT:   1 TOTAL ITERATIONS, OF WHICH
   0 ARE SEVERE DISCONTINUITY ITERATIONS AND  1 ARE EQUILIBRIUM ITERATIONS.

 TIME INCREMENT COMPLETED   10.0    ,  FRACTION OF STEP COMPLETED  5.000E-02
 STEP TIME COMPLETED        50.0    ,  TOTAL TIME COMPLETED         50.0    


  INCREMENT     6 STARTS. ATTEMPT NUMBER  1, TIME INCREMENT   10.0    
 
	SYMMETRIC NEW DIRECT SPARSE SOLVER RUNNING ON
 	1 HOST x 1 MPI RANK PER HOST x 8 THREADS PER RANK
        NUMBER OF EQUATIONS:  126306
        NUMBER OF RHS:        1
        NUMBER OF FLOPS:      5.568e+10
        SOLVER ELAPSED TIME:  549ms

               CONVERGENCE CHECKS FOR EQUILIBRIUM ITERATION     1


 AVERAGE FORCE                      0.473       TIME AVG. FORCE       0.275    
 LARGEST SCALED RESIDUAL FORCE     -1.669E-07   AT NODE       2205   DOF  2
   INSTANCE: NDBR6-M-1                                                                       
  CORRESPONDING RESIDUAL FORCE     -1.669E-07
 LARGEST INCREMENT OF DISP.         1.500E-05   AT NODE         21   DOF  2
   INSTANCE: NDBR6-M-1                                                                       
 LARGEST CORRECTION TO DISP.        1.299E-10   AT NODE        342   DOF  2
   INSTANCE: NDBR6-M-1                                                                       
          THE FORCE     EQUILIBRIUM EQUATIONS HAVE CONVERGED

 ITERATION SUMMARY FOR THE INCREMENT:   1 TOTAL ITERATIONS, OF WHICH
   0 ARE SEVERE DISCONTINUITY ITERATIONS AND  1 ARE EQUILIBRIUM ITERATIONS.

 TIME INCREMENT COMPLETED   10.0    ,  FRACTION OF STEP COMPLETED  6.000E-02
 STEP TIME COMPLETED        60.0    ,  TOTAL TIME COMPLETED         60.0    


  INCREMENT     7 STARTS. ATTEMPT NUMBER  1, TIME INCREMENT   10.0    
 
	SYMMETRIC NEW DIRECT SPARSE SOLVER RUNNING ON
 	1 HOST x 1 MPI RANK PER HOST x 8 THREADS PER RANK
        NUMBER OF EQUATIONS:  126306
        NUMBER OF RHS:        1
        NUMBER OF FLOPS:      5.568e+10
        SOLVER ELAPSED TIME:  550ms

               CONVERGENCE CHECKS FOR EQUILIBRIUM ITERATION     1


 AVERAGE FORCE                      0.552       TIME AVG. FORCE       0.314    
 LARGEST SCALED RESIDUAL FORCE     -1.984E-07   AT NODE       2205   DOF  2
   INSTANCE: NDBR6-M-1                                                                       
  CORRESPONDING RESIDUAL FORCE     -1.984E-07
 LARGEST INCREMENT OF DISP.         1.500E-05   AT NODE         21   DOF  2
   INSTANCE: NDBR6-M-1                                                                       
 LARGEST CORRECTION TO DISP.        1.299E-10   AT NODE        342   DOF  2
   INSTANCE: NDBR6-M-1                                                                       
          THE FORCE     EQUILIBRIUM EQUATIONS HAVE CONVERGED

 ITERATION SUMMARY FOR THE INCREMENT:   1 TOTAL ITERATIONS, OF WHICH
   0 ARE SEVERE DISCONTINUITY ITERATIONS AND  1 ARE EQUILIBRIUM ITERATIONS.

 TIME INCREMENT COMPLETED   10.0    ,  FRACTION OF STEP COMPLETED  7.000E-02
 STEP TIME COMPLETED        70.0    ,  TOTAL TIME COMPLETED         70.0    


  INCREMENT     8 STARTS. ATTEMPT NUMBER  1, TIME INCREMENT   10.0    
 
	SYMMETRIC NEW DIRECT SPARSE SOLVER RUNNING ON
 	1 HOST x 1 MPI RANK PER HOST x 8 THREADS PER RANK
        NUMBER OF EQUATIONS:  126306
        NUMBER OF RHS:        1
        NUMBER OF FLOPS:      5.568e+10
        SOLVER ELAPSED TIME:  536ms

               CONVERGENCE CHECKS FOR EQUILIBRIUM ITERATION     1


 AVERAGE FORCE                      0.631       TIME AVG. FORCE       0.354    
 LARGEST SCALED RESIDUAL FORCE     -2.300E-07   AT NODE       2205   DOF  2
   INSTANCE: NDBR6-M-1                                                                       
  CORRESPONDING RESIDUAL FORCE     -2.300E-07
 LARGEST INCREMENT OF DISP.         1.500E-05   AT NODE         21   DOF  2
   INSTANCE: NDBR6-M-1                                                                       
 LARGEST CORRECTION TO DISP.        1.299E-10   AT NODE        342   DOF  2
   INSTANCE: NDBR6-M-1                                                                       
          THE FORCE     EQUILIBRIUM EQUATIONS HAVE CONVERGED

 ITERATION SUMMARY FOR THE INCREMENT:   1 TOTAL ITERATIONS, OF WHICH
   0 ARE SEVERE DISCONTINUITY ITERATIONS AND  1 ARE EQUILIBRIUM ITERATIONS.

 TIME INCREMENT COMPLETED   10.0    ,  FRACTION OF STEP COMPLETED  8.000E-02
 STEP TIME COMPLETED        80.0    ,  TOTAL TIME COMPLETED         80.0    


  INCREMENT     9 STARTS. ATTEMPT NUMBER  1, TIME INCREMENT   10.0    
 
	SYMMETRIC NEW DIRECT SPARSE SOLVER RUNNING ON
 	1 HOST x 1 MPI RANK PER HOST x 8 THREADS PER RANK
        NUMBER OF EQUATIONS:  126306
        NUMBER OF RHS:        1
        NUMBER OF FLOPS:      5.568e+10
        SOLVER ELAPSED TIME:  546ms

               CONVERGENCE CHECKS FOR EQUILIBRIUM ITERATION     1


 AVERAGE FORCE                      0.709       TIME AVG. FORCE       0.393    
 LARGEST SCALED RESIDUAL FORCE     -2.615E-07   AT NODE       2205   DOF  2
   INSTANCE: NDBR6-M-1                                                                       
  CORRESPONDING RESIDUAL FORCE     -2.615E-07
 LARGEST INCREMENT OF DISP.         1.500E-05   AT NODE         21   DOF  2
   INSTANCE: NDBR6-M-1                                                                       
 LARGEST CORRECTION TO DISP.        1.298E-10   AT NODE        342   DOF  2
   INSTANCE: NDBR6-M-1                                                                       
          THE FORCE     EQUILIBRIUM EQUATIONS HAVE CONVERGED

 ITERATION SUMMARY FOR THE INCREMENT:   1 TOTAL ITERATIONS, OF WHICH
   0 ARE SEVERE DISCONTINUITY ITERATIONS AND  1 ARE EQUILIBRIUM ITERATIONS.

 TIME INCREMENT COMPLETED   10.0    ,  FRACTION OF STEP COMPLETED  9.000E-02
 STEP TIME COMPLETED        90.0    ,  TOTAL TIME COMPLETED         90.0    


  INCREMENT    10 STARTS. ATTEMPT NUMBER  1, TIME INCREMENT   10.0    
 
	SYMMETRIC NEW DIRECT SPARSE SOLVER RUNNING ON
 	1 HOST x 1 MPI RANK PER HOST x 8 THREADS PER RANK
        NUMBER OF EQUATIONS:  126306
        NUMBER OF RHS:        1
        NUMBER OF FLOPS:      5.568e+10
        SOLVER ELAPSED TIME:  549ms

               CONVERGENCE CHECKS FOR EQUILIBRIUM ITERATION     1


 AVERAGE FORCE                      0.788       TIME AVG. FORCE       0.433    
 LARGEST SCALED RESIDUAL FORCE     -2.930E-07   AT NODE       2205   DOF  2
   INSTANCE: NDBR6-M-1                                                                       
  CORRESPONDING RESIDUAL FORCE     -2.930E-07
 LARGEST INCREMENT OF DISP.         1.500E-05   AT NODE         21   DOF  2
   INSTANCE: NDBR6-M-1                                                                       
 LARGEST CORRECTION TO DISP.        1.298E-10   AT NODE        342   DOF  2
   INSTANCE: NDBR6-M-1                                                                       
          THE FORCE     EQUILIBRIUM EQUATIONS HAVE CONVERGED

 ITERATION SUMMARY FOR THE INCREMENT:   1 TOTAL ITERATIONS, OF WHICH
   0 ARE SEVERE DISCONTINUITY ITERATIONS AND  1 ARE EQUILIBRIUM ITERATIONS.

 TIME INCREMENT COMPLETED   10.0    ,  FRACTION OF STEP COMPLETED  0.100    
 STEP TIME COMPLETED        100.    ,  TOTAL TIME COMPLETED         100.    


  INCREMENT    11 STARTS. ATTEMPT NUMBER  1, TIME INCREMENT   10.0    
 
	SYMMETRIC NEW DIRECT SPARSE SOLVER RUNNING ON
 	1 HOST x 1 MPI RANK PER HOST x 8 THREADS PER RANK
        NUMBER OF EQUATIONS:  126306
        NUMBER OF RHS:        1
        NUMBER OF FLOPS:      5.568e+10
        SOLVER ELAPSED TIME:  549ms

               CONVERGENCE CHECKS FOR EQUILIBRIUM ITERATION     1


 AVERAGE FORCE                      0.867       TIME AVG. FORCE       0.472    
 LARGEST SCALED RESIDUAL FORCE     -3.245E-07   AT NODE       2205   DOF  2
   INSTANCE: NDBR6-M-1                                                                       
  CORRESPONDING RESIDUAL FORCE     -3.245E-07
 LARGEST INCREMENT OF DISP.         1.500E-05   AT NODE         21   DOF  2
   INSTANCE: NDBR6-M-1                                                                       
 LARGEST CORRECTION TO DISP.        1.298E-10   AT NODE        342   DOF  2
   INSTANCE: NDBR6-M-1                                                                       
          THE FORCE     EQUILIBRIUM EQUATIONS HAVE CONVERGED

 ITERATION SUMMARY FOR THE INCREMENT:   1 TOTAL ITERATIONS, OF WHICH
   0 ARE SEVERE DISCONTINUITY ITERATIONS AND  1 ARE EQUILIBRIUM ITERATIONS.

 TIME INCREMENT COMPLETED   10.0    ,  FRACTION OF STEP COMPLETED  0.110    
 STEP TIME COMPLETED        110.    ,  TOTAL TIME COMPLETED         110.    


  INCREMENT    12 STARTS. ATTEMPT NUMBER  1, TIME INCREMENT   10.0    
 
	SYMMETRIC NEW DIRECT SPARSE SOLVER RUNNING ON
 	1 HOST x 1 MPI RANK PER HOST x 8 THREADS PER RANK
        NUMBER OF EQUATIONS:  126306
        NUMBER OF RHS:        1
        NUMBER OF FLOPS:      5.568e+10
        SOLVER ELAPSED TIME:  537ms

               CONVERGENCE CHECKS FOR EQUILIBRIUM ITERATION     1


 AVERAGE FORCE                      0.946       TIME AVG. FORCE       0.512    
 LARGEST SCALED RESIDUAL FORCE     -3.560E-07   AT NODE       2205   DOF  2
   INSTANCE: NDBR6-M-1                                                                       
  CORRESPONDING RESIDUAL FORCE     -3.560E-07
 LARGEST INCREMENT OF DISP.         1.500E-05   AT NODE         21   DOF  2
   INSTANCE: NDBR6-M-1                                                                       
 LARGEST CORRECTION TO DISP.        1.298E-10   AT NODE        342   DOF  2
   INSTANCE: NDBR6-M-1                                                                       
          THE FORCE     EQUILIBRIUM EQUATIONS HAVE CONVERGED

 ITERATION SUMMARY FOR THE INCREMENT:   1 TOTAL ITERATIONS, OF WHICH
   0 ARE SEVERE DISCONTINUITY ITERATIONS AND  1 ARE EQUILIBRIUM ITERATIONS.

 TIME INCREMENT COMPLETED   10.0    ,  FRACTION OF STEP COMPLETED  0.120    
 STEP TIME COMPLETED        120.    ,  TOTAL TIME COMPLETED         120.    


  INCREMENT    13 STARTS. ATTEMPT NUMBER  1, TIME INCREMENT   10.0    
 
	SYMMETRIC NEW DIRECT SPARSE SOLVER RUNNING ON
 	1 HOST x 1 MPI RANK PER HOST x 8 THREADS PER RANK
        NUMBER OF EQUATIONS:  126306
        NUMBER OF RHS:        1
        NUMBER OF FLOPS:      5.568e+10
        SOLVER ELAPSED TIME:  543ms

               CONVERGENCE CHECKS FOR EQUILIBRIUM ITERATION     1


 AVERAGE FORCE                       1.02       TIME AVG. FORCE       0.551    
 LARGEST SCALED RESIDUAL FORCE     -3.875E-07   AT NODE       2205   DOF  2
   INSTANCE: NDBR6-M-1                                                                       
  CORRESPONDING RESIDUAL FORCE     -3.875E-07
 LARGEST INCREMENT OF DISP.         1.500E-05   AT NODE         21   DOF  2
   INSTANCE: NDBR6-M-1                                                                       
 LARGEST CORRECTION TO DISP.        1.298E-10   AT NODE        342   DOF  2
   INSTANCE: NDBR6-M-1                                                                       
          THE FORCE     EQUILIBRIUM EQUATIONS HAVE CONVERGED

 ITERATION SUMMARY FOR THE INCREMENT:   1 TOTAL ITERATIONS, OF WHICH
   0 ARE SEVERE DISCONTINUITY ITERATIONS AND  1 ARE EQUILIBRIUM ITERATIONS.

 TIME INCREMENT COMPLETED   10.0    ,  FRACTION OF STEP COMPLETED  0.130    
 STEP TIME COMPLETED        130.    ,  TOTAL TIME COMPLETED         130.    


  INCREMENT    14 STARTS. ATTEMPT NUMBER  1, TIME INCREMENT   10.0    
 
	SYMMETRIC NEW DIRECT SPARSE SOLVER RUNNING ON
 	1 HOST x 1 MPI RANK PER HOST x 8 THREADS PER RANK
        NUMBER OF EQUATIONS:  126306
        NUMBER OF RHS:        1
        NUMBER OF FLOPS:      5.568e+10
        SOLVER ELAPSED TIME:  549ms

               CONVERGENCE CHECKS FOR EQUILIBRIUM ITERATION     1


 AVERAGE FORCE                       1.10       TIME AVG. FORCE       0.591    
 LARGEST SCALED RESIDUAL FORCE     -4.189E-07   AT NODE       2205   DOF  2
   INSTANCE: NDBR6-M-1                                                                       
  CORRESPONDING RESIDUAL FORCE     -4.189E-07
 LARGEST INCREMENT OF DISP.         1.500E-05   AT NODE         21   DOF  2
   INSTANCE: NDBR6-M-1                                                                       
 LARGEST CORRECTION TO DISP.        1.298E-10   AT NODE        342   DOF  2
   INSTANCE: NDBR6-M-1                                                                       
          THE FORCE     EQUILIBRIUM EQUATIONS HAVE CONVERGED

 ITERATION SUMMARY FOR THE INCREMENT:   1 TOTAL ITERATIONS, OF WHICH
   0 ARE SEVERE DISCONTINUITY ITERATIONS AND  1 ARE EQUILIBRIUM ITERATIONS.

 TIME INCREMENT COMPLETED   10.0    ,  FRACTION OF STEP COMPLETED  0.140    
 STEP TIME COMPLETED        140.    ,  TOTAL TIME COMPLETED         140.    


  INCREMENT    15 STARTS. ATTEMPT NUMBER  1, TIME INCREMENT   10.0    
 
	SYMMETRIC NEW DIRECT SPARSE SOLVER RUNNING ON
 	1 HOST x 1 MPI RANK PER HOST x 8 THREADS PER RANK
        NUMBER OF EQUATIONS:  126306
        NUMBER OF RHS:        1
        NUMBER OF FLOPS:      5.568e+10
        SOLVER ELAPSED TIME:  553ms

               CONVERGENCE CHECKS FOR EQUILIBRIUM ITERATION     1


 AVERAGE FORCE                       1.18       TIME AVG. FORCE       0.630    
 LARGEST SCALED RESIDUAL FORCE     -4.504E-07   AT NODE       2205   DOF  2
   INSTANCE: NDBR6-M-1                                                                       
  CORRESPONDING RESIDUAL FORCE     -4.504E-07
 LARGEST INCREMENT OF DISP.         1.500E-05   AT NODE         21   DOF  2
   INSTANCE: NDBR6-M-1                                                                       
 LARGEST CORRECTION TO DISP.        1.298E-10   AT NODE        342   DOF  2
   INSTANCE: NDBR6-M-1                                                                       
          THE FORCE     EQUILIBRIUM EQUATIONS HAVE CONVERGED

 ITERATION SUMMARY FOR THE INCREMENT:   1 TOTAL ITERATIONS, OF WHICH
   0 ARE SEVERE DISCONTINUITY ITERATIONS AND  1 ARE EQUILIBRIUM ITERATIONS.

 TIME INCREMENT COMPLETED   10.0    ,  FRACTION OF STEP COMPLETED  0.150    
 STEP TIME COMPLETED        150.    ,  TOTAL TIME COMPLETED         150.    


  INCREMENT    16 STARTS. ATTEMPT NUMBER  1, TIME INCREMENT   10.0    
 
	SYMMETRIC NEW DIRECT SPARSE SOLVER RUNNING ON
 	1 HOST x 1 MPI RANK PER HOST x 8 THREADS PER RANK
        NUMBER OF EQUATIONS:  126306
        NUMBER OF RHS:        1
        NUMBER OF FLOPS:      5.568e+10
        SOLVER ELAPSED TIME:  519ms

               CONVERGENCE CHECKS FOR EQUILIBRIUM ITERATION     1


 AVERAGE FORCE                       1.26       TIME AVG. FORCE       0.669    
 LARGEST SCALED RESIDUAL FORCE     -4.818E-07   AT NODE       2205   DOF  2
   INSTANCE: NDBR6-M-1                                                                       
  CORRESPONDING RESIDUAL FORCE     -4.818E-07
 LARGEST INCREMENT OF DISP.         1.500E-05   AT NODE         21   DOF  2
   INSTANCE: NDBR6-M-1                                                                       
 LARGEST CORRECTION TO DISP.        1.298E-10   AT NODE        342   DOF  2
   INSTANCE: NDBR6-M-1                                                                       
          THE FORCE     EQUILIBRIUM EQUATIONS HAVE CONVERGED

 ITERATION SUMMARY FOR THE INCREMENT:   1 TOTAL ITERATIONS, OF WHICH
   0 ARE SEVERE DISCONTINUITY ITERATIONS AND  1 ARE EQUILIBRIUM ITERATIONS.

 TIME INCREMENT COMPLETED   10.0    ,  FRACTION OF STEP COMPLETED  0.160    
 STEP TIME COMPLETED        160.    ,  TOTAL TIME COMPLETED         160.    


  INCREMENT    17 STARTS. ATTEMPT NUMBER  1, TIME INCREMENT   10.0    
 
	SYMMETRIC NEW DIRECT SPARSE SOLVER RUNNING ON
 	1 HOST x 1 MPI RANK PER HOST x 8 THREADS PER RANK
        NUMBER OF EQUATIONS:  126306
        NUMBER OF RHS:        1
        NUMBER OF FLOPS:      5.568e+10
        SOLVER ELAPSED TIME:  548ms

               CONVERGENCE CHECKS FOR EQUILIBRIUM ITERATION     1


 AVERAGE FORCE                       1.34       TIME AVG. FORCE       0.709    
 LARGEST SCALED RESIDUAL FORCE     -5.132E-07   AT NODE       2205   DOF  2
   INSTANCE: NDBR6-M-1                                                                       
  CORRESPONDING RESIDUAL FORCE     -5.132E-07
 LARGEST INCREMENT OF DISP.         1.500E-05   AT NODE         21   DOF  2
   INSTANCE: NDBR6-M-1                                                                       
 LARGEST CORRECTION TO DISP.        1.298E-10   AT NODE        342   DOF  2
   INSTANCE: NDBR6-M-1                                                                       
          THE FORCE     EQUILIBRIUM EQUATIONS HAVE CONVERGED

 ITERATION SUMMARY FOR THE INCREMENT:   1 TOTAL ITERATIONS, OF WHICH
   0 ARE SEVERE DISCONTINUITY ITERATIONS AND  1 ARE EQUILIBRIUM ITERATIONS.

 TIME INCREMENT COMPLETED   10.0    ,  FRACTION OF STEP COMPLETED  0.170    
 STEP TIME COMPLETED        170.    ,  TOTAL TIME COMPLETED         170.    


  INCREMENT    18 STARTS. ATTEMPT NUMBER  1, TIME INCREMENT   10.0    
 
	SYMMETRIC NEW DIRECT SPARSE SOLVER RUNNING ON
 	1 HOST x 1 MPI RANK PER HOST x 8 THREADS PER RANK
        NUMBER OF EQUATIONS:  126306
        NUMBER OF RHS:        1
        NUMBER OF FLOPS:      5.568e+10
        SOLVER ELAPSED TIME:  552ms

               CONVERGENCE CHECKS FOR EQUILIBRIUM ITERATION     1


 AVERAGE FORCE                       1.42       TIME AVG. FORCE       0.748    
 LARGEST SCALED RESIDUAL FORCE     -5.446E-07   AT NODE       2205   DOF  2
   INSTANCE: NDBR6-M-1                                                                       
  CORRESPONDING RESIDUAL FORCE     -5.446E-07
 LARGEST INCREMENT OF DISP.         1.500E-05   AT NODE         21   DOF  2
   INSTANCE: NDBR6-M-1                                                                       
 LARGEST CORRECTION TO DISP.        1.297E-10   AT NODE        342   DOF  2
   INSTANCE: NDBR6-M-1                                                                       
          THE FORCE     EQUILIBRIUM EQUATIONS HAVE CONVERGED

 ITERATION SUMMARY FOR THE INCREMENT:   1 TOTAL ITERATIONS, OF WHICH
   0 ARE SEVERE DISCONTINUITY ITERATIONS AND  1 ARE EQUILIBRIUM ITERATIONS.

 TIME INCREMENT COMPLETED   10.0    ,  FRACTION OF STEP COMPLETED  0.180    
 STEP TIME COMPLETED        180.    ,  TOTAL TIME COMPLETED         180.    


  INCREMENT    19 STARTS. ATTEMPT NUMBER  1, TIME INCREMENT   10.0    
 
	SYMMETRIC NEW DIRECT SPARSE SOLVER RUNNING ON
 	1 HOST x 1 MPI RANK PER HOST x 8 THREADS PER RANK
        NUMBER OF EQUATIONS:  126306
        NUMBER OF RHS:        1
        NUMBER OF FLOPS:      5.568e+10
        SOLVER ELAPSED TIME:  552ms

               CONVERGENCE CHECKS FOR EQUILIBRIUM ITERATION     1


 AVERAGE FORCE                       1.50       TIME AVG. FORCE       0.788    
 LARGEST SCALED RESIDUAL FORCE     -5.760E-07   AT NODE       2205   DOF  2
   INSTANCE: NDBR6-M-1                                                                       
  CORRESPONDING RESIDUAL FORCE     -5.760E-07
 LARGEST INCREMENT OF DISP.         1.500E-05   AT NODE         21   DOF  2
   INSTANCE: NDBR6-M-1                                                                       
 LARGEST CORRECTION TO DISP.        1.297E-10   AT NODE        342   DOF  2
   INSTANCE: NDBR6-M-1                                                                       
          THE FORCE     EQUILIBRIUM EQUATIONS HAVE CONVERGED

 ITERATION SUMMARY FOR THE INCREMENT:   1 TOTAL ITERATIONS, OF WHICH
   0 ARE SEVERE DISCONTINUITY ITERATIONS AND  1 ARE EQUILIBRIUM ITERATIONS.

 TIME INCREMENT COMPLETED   10.0    ,  FRACTION OF STEP COMPLETED  0.190    
 STEP TIME COMPLETED        190.    ,  TOTAL TIME COMPLETED         190.    


  INCREMENT    20 STARTS. ATTEMPT NUMBER  1, TIME INCREMENT   10.0    
 
	SYMMETRIC NEW DIRECT SPARSE SOLVER RUNNING ON
 	1 HOST x 1 MPI RANK PER HOST x 8 THREADS PER RANK
        NUMBER OF EQUATIONS:  126306
        NUMBER OF RHS:        1
        NUMBER OF FLOPS:      5.568e+10
        SOLVER ELAPSED TIME:  538ms

               CONVERGENCE CHECKS FOR EQUILIBRIUM ITERATION     1


 AVERAGE FORCE                       1.58       TIME AVG. FORCE       0.827    
 LARGEST SCALED RESIDUAL FORCE     -6.074E-07   AT NODE       2205   DOF  2
   INSTANCE: NDBR6-M-1                                                                       
  CORRESPONDING RESIDUAL FORCE     -6.074E-07
 LARGEST INCREMENT OF DISP.         1.500E-05   AT NODE         21   DOF  2
   INSTANCE: NDBR6-M-1                                                                       
 LARGEST CORRECTION TO DISP.        1.297E-10   AT NODE        342   DOF  2
   INSTANCE: NDBR6-M-1                                                                       
          THE FORCE     EQUILIBRIUM EQUATIONS HAVE CONVERGED

 ITERATION SUMMARY FOR THE INCREMENT:   1 TOTAL ITERATIONS, OF WHICH
   0 ARE SEVERE DISCONTINUITY ITERATIONS AND  1 ARE EQUILIBRIUM ITERATIONS.

 TIME INCREMENT COMPLETED   10.0    ,  FRACTION OF STEP COMPLETED  0.200    
 STEP TIME COMPLETED        200.    ,  TOTAL TIME COMPLETED         200.    


  INCREMENT    21 STARTS. ATTEMPT NUMBER  1, TIME INCREMENT   10.0    
 
	SYMMETRIC NEW DIRECT SPARSE SOLVER RUNNING ON
 	1 HOST x 1 MPI RANK PER HOST x 8 THREADS PER RANK
        NUMBER OF EQUATIONS:  126306
        NUMBER OF RHS:        1
        NUMBER OF FLOPS:      5.568e+10
        SOLVER ELAPSED TIME:  548ms

               CONVERGENCE CHECKS FOR EQUILIBRIUM ITERATION     1


 AVERAGE FORCE                       1.65       TIME AVG. FORCE       0.866    
 LARGEST SCALED RESIDUAL FORCE     -6.387E-07   AT NODE       2205   DOF  2
   INSTANCE: NDBR6-M-1                                                                       
  CORRESPONDING RESIDUAL FORCE     -6.387E-07
 LARGEST INCREMENT OF DISP.         1.500E-05   AT NODE         21   DOF  2
   INSTANCE: NDBR6-M-1                                                                       
 LARGEST CORRECTION TO DISP.        1.297E-10   AT NODE        342   DOF  2
   INSTANCE: NDBR6-M-1                                                                       
          THE FORCE     EQUILIBRIUM EQUATIONS HAVE CONVERGED

 ITERATION SUMMARY FOR THE INCREMENT:   1 TOTAL ITERATIONS, OF WHICH
   0 ARE SEVERE DISCONTINUITY ITERATIONS AND  1 ARE EQUILIBRIUM ITERATIONS.

 TIME INCREMENT COMPLETED   10.0    ,  FRACTION OF STEP COMPLETED  0.210    
 STEP TIME COMPLETED        210.    ,  TOTAL TIME COMPLETED         210.    


  INCREMENT    22 STARTS. ATTEMPT NUMBER  1, TIME INCREMENT   10.0    
 
	SYMMETRIC NEW DIRECT SPARSE SOLVER RUNNING ON
 	1 HOST x 1 MPI RANK PER HOST x 8 THREADS PER RANK
        NUMBER OF EQUATIONS:  126306
        NUMBER OF RHS:        1
        NUMBER OF FLOPS:      5.568e+10
        SOLVER ELAPSED TIME:  552ms

               CONVERGENCE CHECKS FOR EQUILIBRIUM ITERATION     1


 AVERAGE FORCE                       1.73       TIME AVG. FORCE       0.906    
 LARGEST SCALED RESIDUAL FORCE     -6.701E-07   AT NODE       2205   DOF  2
   INSTANCE: NDBR6-M-1                                                                       
  CORRESPONDING RESIDUAL FORCE     -6.701E-07
 LARGEST INCREMENT OF DISP.         1.500E-05   AT NODE         21   DOF  2
   INSTANCE: NDBR6-M-1                                                                       
 LARGEST CORRECTION TO DISP.        1.297E-10   AT NODE        342   DOF  2
   INSTANCE: NDBR6-M-1                                                                       
          THE FORCE     EQUILIBRIUM EQUATIONS HAVE CONVERGED

 ITERATION SUMMARY FOR THE INCREMENT:   1 TOTAL ITERATIONS, OF WHICH
   0 ARE SEVERE DISCONTINUITY ITERATIONS AND  1 ARE EQUILIBRIUM ITERATIONS.

 TIME INCREMENT COMPLETED   10.0    ,  FRACTION OF STEP COMPLETED  0.220    
 STEP TIME COMPLETED        220.    ,  TOTAL TIME COMPLETED         220.    


  INCREMENT    23 STARTS. ATTEMPT NUMBER  1, TIME INCREMENT   10.0    
 
	SYMMETRIC NEW DIRECT SPARSE SOLVER RUNNING ON
 	1 HOST x 1 MPI RANK PER HOST x 8 THREADS PER RANK
        NUMBER OF EQUATIONS:  126306
        NUMBER OF RHS:        1
        NUMBER OF FLOPS:      5.568e+10
        SOLVER ELAPSED TIME:  561ms

               CONVERGENCE CHECKS FOR EQUILIBRIUM ITERATION     1


 AVERAGE FORCE                       1.81       TIME AVG. FORCE       0.945    
 LARGEST SCALED RESIDUAL FORCE     -7.014E-07   AT NODE       2205   DOF  2
   INSTANCE: NDBR6-M-1                                                                       
  CORRESPONDING RESIDUAL FORCE     -7.014E-07
 LARGEST INCREMENT OF DISP.         1.500E-05   AT NODE         21   DOF  2
   INSTANCE: NDBR6-M-1                                                                       
 LARGEST CORRECTION TO DISP.        1.297E-10   AT NODE        342   DOF  2
   INSTANCE: NDBR6-M-1                                                                       
          THE FORCE     EQUILIBRIUM EQUATIONS HAVE CONVERGED

 ITERATION SUMMARY FOR THE INCREMENT:   1 TOTAL ITERATIONS, OF WHICH
   0 ARE SEVERE DISCONTINUITY ITERATIONS AND  1 ARE EQUILIBRIUM ITERATIONS.

 TIME INCREMENT COMPLETED   10.0    ,  FRACTION OF STEP COMPLETED  0.230    
 STEP TIME COMPLETED        230.    ,  TOTAL TIME COMPLETED         230.    


  INCREMENT    24 STARTS. ATTEMPT NUMBER  1, TIME INCREMENT   10.0    
 
	SYMMETRIC NEW DIRECT SPARSE SOLVER RUNNING ON
 	1 HOST x 1 MPI RANK PER HOST x 8 THREADS PER RANK
        NUMBER OF EQUATIONS:  126306
        NUMBER OF RHS:        1
        NUMBER OF FLOPS:      5.568e+10
        SOLVER ELAPSED TIME:  524ms

               CONVERGENCE CHECKS FOR EQUILIBRIUM ITERATION     1


 AVERAGE FORCE                       1.89       TIME AVG. FORCE       0.984    
 LARGEST SCALED RESIDUAL FORCE     -7.327E-07   AT NODE       2205   DOF  2
   INSTANCE: NDBR6-M-1                                                                       
  CORRESPONDING RESIDUAL FORCE     -7.327E-07
 LARGEST INCREMENT OF DISP.         1.500E-05   AT NODE         21   DOF  2
   INSTANCE: NDBR6-M-1                                                                       
 LARGEST CORRECTION TO DISP.        1.297E-10   AT NODE        342   DOF  2
   INSTANCE: NDBR6-M-1                                                                       
          THE FORCE     EQUILIBRIUM EQUATIONS HAVE CONVERGED

 ITERATION SUMMARY FOR THE INCREMENT:   1 TOTAL ITERATIONS, OF WHICH
   0 ARE SEVERE DISCONTINUITY ITERATIONS AND  1 ARE EQUILIBRIUM ITERATIONS.

 TIME INCREMENT COMPLETED   10.0    ,  FRACTION OF STEP COMPLETED  0.240    
 STEP TIME COMPLETED        240.    ,  TOTAL TIME COMPLETED         240.    


  INCREMENT    25 STARTS. ATTEMPT NUMBER  1, TIME INCREMENT   10.0    
 
	SYMMETRIC NEW DIRECT SPARSE SOLVER RUNNING ON
 	1 HOST x 1 MPI RANK PER HOST x 8 THREADS PER RANK
        NUMBER OF EQUATIONS:  126306
        NUMBER OF RHS:        1
        NUMBER OF FLOPS:      5.568e+10
        SOLVER ELAPSED TIME:  548ms

               CONVERGENCE CHECKS FOR EQUILIBRIUM ITERATION     1


 AVERAGE FORCE                       1.97       TIME AVG. FORCE        1.02    
 LARGEST SCALED RESIDUAL FORCE     -7.640E-07   AT NODE       2205   DOF  2
   INSTANCE: NDBR6-M-1                                                                       
  CORRESPONDING RESIDUAL FORCE     -7.640E-07
 LARGEST INCREMENT OF DISP.         1.500E-05   AT NODE         21   DOF  2
   INSTANCE: NDBR6-M-1                                                                       
 LARGEST CORRECTION TO DISP.        1.297E-10   AT NODE        342   DOF  2
   INSTANCE: NDBR6-M-1                                                                       
          THE FORCE     EQUILIBRIUM EQUATIONS HAVE CONVERGED

 ITERATION SUMMARY FOR THE INCREMENT:   1 TOTAL ITERATIONS, OF WHICH
   0 ARE SEVERE DISCONTINUITY ITERATIONS AND  1 ARE EQUILIBRIUM ITERATIONS.

 TIME INCREMENT COMPLETED   10.0    ,  FRACTION OF STEP COMPLETED  0.250    
 STEP TIME COMPLETED        250.    ,  TOTAL TIME COMPLETED         250.    


  INCREMENT    26 STARTS. ATTEMPT NUMBER  1, TIME INCREMENT   10.0    
 
	SYMMETRIC NEW DIRECT SPARSE SOLVER RUNNING ON
 	1 HOST x 1 MPI RANK PER HOST x 8 THREADS PER RANK
        NUMBER OF EQUATIONS:  126306
        NUMBER OF RHS:        1
        NUMBER OF FLOPS:      5.568e+10
        SOLVER ELAPSED TIME:  541ms

               CONVERGENCE CHECKS FOR EQUILIBRIUM ITERATION     1


 AVERAGE FORCE                       2.05       TIME AVG. FORCE        1.06    
 LARGEST SCALED RESIDUAL FORCE     -7.953E-07   AT NODE       2205   DOF  2
   INSTANCE: NDBR6-M-1                                                                       
  CORRESPONDING RESIDUAL FORCE     -7.953E-07
 LARGEST INCREMENT OF DISP.         1.500E-05   AT NODE         21   DOF  2
   INSTANCE: NDBR6-M-1                                                                       
 LARGEST CORRECTION TO DISP.        1.296E-10   AT NODE        342   DOF  2
   INSTANCE: NDBR6-M-1                                                                       
          THE FORCE     EQUILIBRIUM EQUATIONS HAVE CONVERGED

 ITERATION SUMMARY FOR THE INCREMENT:   1 TOTAL ITERATIONS, OF WHICH
   0 ARE SEVERE DISCONTINUITY ITERATIONS AND  1 ARE EQUILIBRIUM ITERATIONS.

 TIME INCREMENT COMPLETED   10.0    ,  FRACTION OF STEP COMPLETED  0.260    
 STEP TIME COMPLETED        260.    ,  TOTAL TIME COMPLETED         260.    


  INCREMENT    27 STARTS. ATTEMPT NUMBER  1, TIME INCREMENT   10.0    
 
	SYMMETRIC NEW DIRECT SPARSE SOLVER RUNNING ON
 	1 HOST x 1 MPI RANK PER HOST x 8 THREADS PER RANK
        NUMBER OF EQUATIONS:  126306
        NUMBER OF RHS:        1
        NUMBER OF FLOPS:      5.568e+10
        SOLVER ELAPSED TIME:  548ms

               CONVERGENCE CHECKS FOR EQUILIBRIUM ITERATION     1


 AVERAGE FORCE                       2.13       TIME AVG. FORCE        1.10    
 LARGEST SCALED RESIDUAL FORCE     -6.523E-03   AT NODE      14974   DOF  2
   INSTANCE: NDBR6-M-1                                                                       
  CORRESPONDING RESIDUAL FORCE     -6.523E-03
 LARGEST INCREMENT OF DISP.         1.500E-05   AT NODE         21   DOF  2
   INSTANCE: NDBR6-M-1                                                                       
 LARGEST CORRECTION TO DISP.       -6.918E-09   AT NODE       9718   DOF  3
   INSTANCE: NDBR6-M-1                                                                       
          FORCE     EQUILIBRIUM NOT ACHIEVED WITHIN TOLERANCE.
 
	SYMMETRIC NEW DIRECT SPARSE SOLVER RUNNING ON
 	1 HOST x 1 MPI RANK PER HOST x 8 THREADS PER RANK
        NUMBER OF EQUATIONS:  126306
        NUMBER OF RHS:        1
        NUMBER OF FLOPS:      5.568e+10
        SOLVER ELAPSED TIME:  546ms

               CONVERGENCE CHECKS FOR EQUILIBRIUM ITERATION     2


 AVERAGE FORCE                       2.13       TIME AVG. FORCE        1.10    
 LARGEST SCALED RESIDUAL FORCE     -4.497E-05   AT NODE      14634   DOF  2
   INSTANCE: NDBR6-M-1                                                                       
  CORRESPONDING RESIDUAL FORCE     -4.497E-05
 LARGEST INCREMENT OF DISP.         1.500E-05   AT NODE         21   DOF  2
   INSTANCE: NDBR6-M-1                                                                       
 LARGEST CORRECTION TO DISP.       -4.216E-10   AT NODE       9718   DOF  3
   INSTANCE: NDBR6-M-1                                                                       
          THE FORCE     EQUILIBRIUM EQUATIONS HAVE CONVERGED

 ITERATION SUMMARY FOR THE INCREMENT:   2 TOTAL ITERATIONS, OF WHICH
   0 ARE SEVERE DISCONTINUITY ITERATIONS AND  2 ARE EQUILIBRIUM ITERATIONS.

 TIME INCREMENT COMPLETED   10.0    ,  FRACTION OF STEP COMPLETED  0.270    
 STEP TIME COMPLETED        270.    ,  TOTAL TIME COMPLETED         270.    


  INCREMENT    28 STARTS. ATTEMPT NUMBER  1, TIME INCREMENT   10.0    
 
	SYMMETRIC NEW DIRECT SPARSE SOLVER RUNNING ON
 	1 HOST x 1 MPI RANK PER HOST x 8 THREADS PER RANK
        NUMBER OF EQUATIONS:  126306
        NUMBER OF RHS:        1
        NUMBER OF FLOPS:      5.568e+10
        SOLVER ELAPSED TIME:  551ms

               CONVERGENCE CHECKS FOR EQUILIBRIUM ITERATION     1


 AVERAGE FORCE                       2.20       TIME AVG. FORCE        1.14    
 LARGEST SCALED RESIDUAL FORCE     -5.802E-03   AT NODE      15027   DOF  2
   INSTANCE: NDBR6-M-1                                                                       
  CORRESPONDING RESIDUAL FORCE     -5.802E-03
 LARGEST INCREMENT OF DISP.         1.500E-05   AT NODE         21   DOF  2
   INSTANCE: NDBR6-M-1                                                                       
 LARGEST CORRECTION TO DISP.        1.660E-08   AT NODE       9673   DOF  2
   INSTANCE: NDBR6-M-1                                                                       
          FORCE     EQUILIBRIUM NOT ACHIEVED WITHIN TOLERANCE.
 
	SYMMETRIC NEW DIRECT SPARSE SOLVER RUNNING ON
 	1 HOST x 1 MPI RANK PER HOST x 8 THREADS PER RANK
        NUMBER OF EQUATIONS:  126306
        NUMBER OF RHS:        1
        NUMBER OF FLOPS:      5.568e+10
        SOLVER ELAPSED TIME:  551ms

               CONVERGENCE CHECKS FOR EQUILIBRIUM ITERATION     2


 AVERAGE FORCE                       2.20       TIME AVG. FORCE        1.14    
 LARGEST SCALED RESIDUAL FORCE     -4.461E-05   AT NODE       9727   DOF  2
   INSTANCE: NDBR6-M-1                                                                       
  CORRESPONDING RESIDUAL FORCE     -4.461E-05
 LARGEST INCREMENT OF DISP.         1.500E-05   AT NODE         21   DOF  2
   INSTANCE: NDBR6-M-1                                                                       
 LARGEST CORRECTION TO DISP.       -2.924E-10   AT NODE      15027   DOF  2
   INSTANCE: NDBR6-M-1                                                                       
          THE FORCE     EQUILIBRIUM EQUATIONS HAVE CONVERGED

 ITERATION SUMMARY FOR THE INCREMENT:   2 TOTAL ITERATIONS, OF WHICH
   0 ARE SEVERE DISCONTINUITY ITERATIONS AND  2 ARE EQUILIBRIUM ITERATIONS.

 TIME INCREMENT COMPLETED   10.0    ,  FRACTION OF STEP COMPLETED  0.280    
 STEP TIME COMPLETED        280.    ,  TOTAL TIME COMPLETED         280.    


  INCREMENT    29 STARTS. ATTEMPT NUMBER  1, TIME INCREMENT   10.0    
 
	SYMMETRIC NEW DIRECT SPARSE SOLVER RUNNING ON
 	1 HOST x 1 MPI RANK PER HOST x 8 THREADS PER RANK
        NUMBER OF EQUATIONS:  126306
        NUMBER OF RHS:        1
        NUMBER OF FLOPS:      5.568e+10
        SOLVER ELAPSED TIME:  555ms

               CONVERGENCE CHECKS FOR EQUILIBRIUM ITERATION     1


 AVERAGE FORCE                       2.28       TIME AVG. FORCE        1.18    
 LARGEST SCALED RESIDUAL FORCE      7.232E-03   AT NODE      15155   DOF  2
   INSTANCE: NDBR6-M-1                                                                       
  CORRESPONDING RESIDUAL FORCE      7.232E-03
 LARGEST INCREMENT OF DISP.         1.500E-05   AT NODE         21   DOF  2
   INSTANCE: NDBR6-M-1                                                                       
 LARGEST CORRECTION TO DISP.        1.775E-08   AT NODE      15148   DOF  2
   INSTANCE: NDBR6-M-1                                                                       
          FORCE     EQUILIBRIUM NOT ACHIEVED WITHIN TOLERANCE.
 
	SYMMETRIC NEW DIRECT SPARSE SOLVER RUNNING ON
 	1 HOST x 1 MPI RANK PER HOST x 8 THREADS PER RANK
        NUMBER OF EQUATIONS:  126306
        NUMBER OF RHS:        1
        NUMBER OF FLOPS:      5.568e+10
        SOLVER ELAPSED TIME:  553ms

               CONVERGENCE CHECKS FOR EQUILIBRIUM ITERATION     2


 AVERAGE FORCE                       2.28       TIME AVG. FORCE        1.18    
 LARGEST SCALED RESIDUAL FORCE      1.268E-04   AT NODE      15158   DOF  2
   INSTANCE: NDBR6-M-1                                                                       
  CORRESPONDING RESIDUAL FORCE      1.268E-04
 LARGEST INCREMENT OF DISP.         1.500E-05   AT NODE         21   DOF  2
   INSTANCE: NDBR6-M-1                                                                       
 LARGEST CORRECTION TO DISP.       -3.736E-10   AT NODE       9619   DOF  3
   INSTANCE: NDBR6-M-1                                                                       
          THE FORCE     EQUILIBRIUM EQUATIONS HAVE CONVERGED

 ITERATION SUMMARY FOR THE INCREMENT:   2 TOTAL ITERATIONS, OF WHICH
   0 ARE SEVERE DISCONTINUITY ITERATIONS AND  2 ARE EQUILIBRIUM ITERATIONS.

 TIME INCREMENT COMPLETED   10.0    ,  FRACTION OF STEP COMPLETED  0.290    
 STEP TIME COMPLETED        290.    ,  TOTAL TIME COMPLETED         290.    


  INCREMENT    30 STARTS. ATTEMPT NUMBER  1, TIME INCREMENT   10.0    
 
	SYMMETRIC NEW DIRECT SPARSE SOLVER RUNNING ON
 	1 HOST x 1 MPI RANK PER HOST x 8 THREADS PER RANK
        NUMBER OF EQUATIONS:  126306
        NUMBER OF RHS:        1
        NUMBER OF FLOPS:      5.568e+10
        SOLVER ELAPSED TIME:  534ms

               CONVERGENCE CHECKS FOR EQUILIBRIUM ITERATION     1


 AVERAGE FORCE                       2.36       TIME AVG. FORCE        1.22    
 LARGEST SCALED RESIDUAL FORCE      7.460E-03   AT NODE      15164   DOF  2
   INSTANCE: NDBR6-M-1                                                                       
  CORRESPONDING RESIDUAL FORCE      7.460E-03
 LARGEST INCREMENT OF DISP.         1.500E-05   AT NODE         21   DOF  2
   INSTANCE: NDBR6-M-1                                                                       
 LARGEST CORRECTION TO DISP.        1.801E-08   AT NODE      10441   DOF  2
   INSTANCE: NDBR6-M-1                                                                       
          FORCE     EQUILIBRIUM NOT ACHIEVED WITHIN TOLERANCE.
 
	SYMMETRIC NEW DIRECT SPARSE SOLVER RUNNING ON
 	1 HOST x 1 MPI RANK PER HOST x 8 THREADS PER RANK
        NUMBER OF EQUATIONS:  126306
        NUMBER OF RHS:        1
        NUMBER OF FLOPS:      5.568e+10
        SOLVER ELAPSED TIME:  545ms

               CONVERGENCE CHECKS FOR EQUILIBRIUM ITERATION     2


 AVERAGE FORCE                       2.36       TIME AVG. FORCE        1.22    
 LARGEST SCALED RESIDUAL FORCE     -9.793E-05   AT NODE      19448   DOF  2
   INSTANCE: NDBR6-M-1                                                                       
  CORRESPONDING RESIDUAL FORCE     -9.793E-05
 LARGEST INCREMENT OF DISP.         1.500E-05   AT NODE         21   DOF  2
   INSTANCE: NDBR6-M-1                                                                       
 LARGEST CORRECTION TO DISP.        3.442E-10   AT NODE      15164   DOF  2
   INSTANCE: NDBR6-M-1                                                                       
          THE FORCE     EQUILIBRIUM EQUATIONS HAVE CONVERGED

 ITERATION SUMMARY FOR THE INCREMENT:   2 TOTAL ITERATIONS, OF WHICH
   0 ARE SEVERE DISCONTINUITY ITERATIONS AND  2 ARE EQUILIBRIUM ITERATIONS.

 TIME INCREMENT COMPLETED   10.0    ,  FRACTION OF STEP COMPLETED  0.300    
 STEP TIME COMPLETED        300.    ,  TOTAL TIME COMPLETED         300.    


  INCREMENT    31 STARTS. ATTEMPT NUMBER  1, TIME INCREMENT   10.0    
 
	SYMMETRIC NEW DIRECT SPARSE SOLVER RUNNING ON
 	1 HOST x 1 MPI RANK PER HOST x 8 THREADS PER RANK
        NUMBER OF EQUATIONS:  126306
        NUMBER OF RHS:        1
        NUMBER OF FLOPS:      5.568e+10
        SOLVER ELAPSED TIME:  544ms

               CONVERGENCE CHECKS FOR EQUILIBRIUM ITERATION     1


 AVERAGE FORCE                       2.44       TIME AVG. FORCE        1.26    
 LARGEST SCALED RESIDUAL FORCE      4.046E-03   AT NODE      33502   DOF  2
   INSTANCE: NDBR6-M-1                                                                       
  CORRESPONDING RESIDUAL FORCE      4.046E-03
 LARGEST INCREMENT OF DISP.         1.500E-05   AT NODE         21   DOF  2
   INSTANCE: NDBR6-M-1                                                                       
 LARGEST CORRECTION TO DISP.        1.763E-08   AT NODE       9544   DOF  2
   INSTANCE: NDBR6-M-1                                                                       
          THE FORCE     EQUILIBRIUM EQUATIONS HAVE CONVERGED

 ITERATION SUMMARY FOR THE INCREMENT:   1 TOTAL ITERATIONS, OF WHICH
   0 ARE SEVERE DISCONTINUITY ITERATIONS AND  1 ARE EQUILIBRIUM ITERATIONS.

 TIME INCREMENT COMPLETED   10.0    ,  FRACTION OF STEP COMPLETED  0.310    
 STEP TIME COMPLETED        310.    ,  TOTAL TIME COMPLETED         310.    


  INCREMENT    32 STARTS. ATTEMPT NUMBER  1, TIME INCREMENT   10.0    
 
	SYMMETRIC NEW DIRECT SPARSE SOLVER RUNNING ON
 	1 HOST x 1 MPI RANK PER HOST x 8 THREADS PER RANK
        NUMBER OF EQUATIONS:  126306
        NUMBER OF RHS:        1
        NUMBER OF FLOPS:      5.568e+10
        SOLVER ELAPSED TIME:  552ms

               CONVERGENCE CHECKS FOR EQUILIBRIUM ITERATION     1


 AVERAGE FORCE                       2.52       TIME AVG. FORCE        1.30    
 LARGEST SCALED RESIDUAL FORCE      3.465E-03   AT NODE      15175   DOF  2
   INSTANCE: NDBR6-M-1                                                                       
  CORRESPONDING RESIDUAL FORCE      3.465E-03
 LARGEST INCREMENT OF DISP.         1.500E-05   AT NODE         21   DOF  2
   INSTANCE: NDBR6-M-1                                                                       
 LARGEST CORRECTION TO DISP.        2.022E-08   AT NODE       9545   DOF  2
   INSTANCE: NDBR6-M-1                                                                       
          THE FORCE     EQUILIBRIUM EQUATIONS HAVE CONVERGED

 ITERATION SUMMARY FOR THE INCREMENT:   1 TOTAL ITERATIONS, OF WHICH
   0 ARE SEVERE DISCONTINUITY ITERATIONS AND  1 ARE EQUILIBRIUM ITERATIONS.

 TIME INCREMENT COMPLETED   10.0    ,  FRACTION OF STEP COMPLETED  0.320    
 STEP TIME COMPLETED        320.    ,  TOTAL TIME COMPLETED         320.    


  INCREMENT    33 STARTS. ATTEMPT NUMBER  1, TIME INCREMENT   10.0    
 
	SYMMETRIC NEW DIRECT SPARSE SOLVER RUNNING ON
 	1 HOST x 1 MPI RANK PER HOST x 8 THREADS PER RANK
        NUMBER OF EQUATIONS:  126306
        NUMBER OF RHS:        1
        NUMBER OF FLOPS:      5.568e+10
        SOLVER ELAPSED TIME:  557ms

               CONVERGENCE CHECKS FOR EQUILIBRIUM ITERATION     1


 AVERAGE FORCE                       2.60       TIME AVG. FORCE        1.34    
 LARGEST SCALED RESIDUAL FORCE      5.634E-03   AT NODE      15179   DOF  2
   INSTANCE: NDBR6-M-1                                                                       
  CORRESPONDING RESIDUAL FORCE      5.634E-03
 LARGEST INCREMENT OF DISP.         1.500E-05   AT NODE         21   DOF  2
   INSTANCE: NDBR6-M-1                                                                       
 LARGEST CORRECTION TO DISP.        2.142E-08   AT NODE      15175   DOF  2
   INSTANCE: NDBR6-M-1                                                                       
          THE FORCE     EQUILIBRIUM EQUATIONS HAVE CONVERGED

 ITERATION SUMMARY FOR THE INCREMENT:   1 TOTAL ITERATIONS, OF WHICH
   0 ARE SEVERE DISCONTINUITY ITERATIONS AND  1 ARE EQUILIBRIUM ITERATIONS.

 TIME INCREMENT COMPLETED   10.0    ,  FRACTION OF STEP COMPLETED  0.330    
 STEP TIME COMPLETED        330.    ,  TOTAL TIME COMPLETED         330.    


  INCREMENT    34 STARTS. ATTEMPT NUMBER  1, TIME INCREMENT   10.0    
 
	SYMMETRIC NEW DIRECT SPARSE SOLVER RUNNING ON
 	1 HOST x 1 MPI RANK PER HOST x 8 THREADS PER RANK
        NUMBER OF EQUATIONS:  126306
        NUMBER OF RHS:        1
        NUMBER OF FLOPS:      5.568e+10
        SOLVER ELAPSED TIME:  537ms

               CONVERGENCE CHECKS FOR EQUILIBRIUM ITERATION     1


 AVERAGE FORCE                       2.68       TIME AVG. FORCE        1.38    
 LARGEST SCALED RESIDUAL FORCE      5.798E-03   AT NODE      33249   DOF  2
   INSTANCE: NDBR6-M-1                                                                       
  CORRESPONDING RESIDUAL FORCE      5.798E-03
 LARGEST INCREMENT OF DISP.         1.500E-05   AT NODE         21   DOF  2
   INSTANCE: NDBR6-M-1                                                                       
 LARGEST CORRECTION TO DISP.        2.284E-08   AT NODE      15179   DOF  2
   INSTANCE: NDBR6-M-1                                                                       
          THE FORCE     EQUILIBRIUM EQUATIONS HAVE CONVERGED

 ITERATION SUMMARY FOR THE INCREMENT:   1 TOTAL ITERATIONS, OF WHICH
   0 ARE SEVERE DISCONTINUITY ITERATIONS AND  1 ARE EQUILIBRIUM ITERATIONS.

 TIME INCREMENT COMPLETED   10.0    ,  FRACTION OF STEP COMPLETED  0.340    
 STEP TIME COMPLETED        340.    ,  TOTAL TIME COMPLETED         340.    


  INCREMENT    35 STARTS. ATTEMPT NUMBER  1, TIME INCREMENT   10.0    
 
	SYMMETRIC NEW DIRECT SPARSE SOLVER RUNNING ON
 	1 HOST x 1 MPI RANK PER HOST x 8 THREADS PER RANK
        NUMBER OF EQUATIONS:  126306
        NUMBER OF RHS:        1
        NUMBER OF FLOPS:      5.568e+10
        SOLVER ELAPSED TIME:  547ms

               CONVERGENCE CHECKS FOR EQUILIBRIUM ITERATION     1


 AVERAGE FORCE                       2.76       TIME AVG. FORCE        1.42    
 LARGEST SCALED RESIDUAL FORCE     -7.450E-03   AT NODE      24637   DOF  2
   INSTANCE: NDBR6-M-1                                                                       
  CORRESPONDING RESIDUAL FORCE     -7.450E-03
 LARGEST INCREMENT OF DISP.         1.500E-05   AT NODE         21   DOF  2
   INSTANCE: NDBR6-M-1                                                                       
 LARGEST CORRECTION TO DISP.        2.655E-08   AT NODE      33681   DOF  2
   INSTANCE: NDBR6-M-1                                                                       
          FORCE     EQUILIBRIUM NOT ACHIEVED WITHIN TOLERANCE.
 
	SYMMETRIC NEW DIRECT SPARSE SOLVER RUNNING ON
 	1 HOST x 1 MPI RANK PER HOST x 8 THREADS PER RANK
        NUMBER OF EQUATIONS:  126306
        NUMBER OF RHS:        1
        NUMBER OF FLOPS:      5.568e+10
        SOLVER ELAPSED TIME:  554ms

               CONVERGENCE CHECKS FOR EQUILIBRIUM ITERATION     2


 AVERAGE FORCE                       2.76       TIME AVG. FORCE        1.42    
 LARGEST SCALED RESIDUAL FORCE      1.956E-05   AT NODE      24637   DOF  2
   INSTANCE: NDBR6-M-1                                                                       
  CORRESPONDING RESIDUAL FORCE      1.956E-05
 LARGEST INCREMENT OF DISP.         1.500E-05   AT NODE         21   DOF  2
   INSTANCE: NDBR6-M-1                                                                       
 LARGEST CORRECTION TO DISP.        4.510E-10   AT NODE       9418   DOF  2
   INSTANCE: NDBR6-M-1                                                                       
          THE FORCE     EQUILIBRIUM EQUATIONS HAVE CONVERGED

 ITERATION SUMMARY FOR THE INCREMENT:   2 TOTAL ITERATIONS, OF WHICH
   0 ARE SEVERE DISCONTINUITY ITERATIONS AND  2 ARE EQUILIBRIUM ITERATIONS.

 TIME INCREMENT COMPLETED   10.0    ,  FRACTION OF STEP COMPLETED  0.350    
 STEP TIME COMPLETED        350.    ,  TOTAL TIME COMPLETED         350.    


  INCREMENT    36 STARTS. ATTEMPT NUMBER  1, TIME INCREMENT   10.0    
 
	SYMMETRIC NEW DIRECT SPARSE SOLVER RUNNING ON
 	1 HOST x 1 MPI RANK PER HOST x 8 THREADS PER RANK
        NUMBER OF EQUATIONS:  126306
        NUMBER OF RHS:        1
        NUMBER OF FLOPS:      5.568e+10
        SOLVER ELAPSED TIME:  542ms

               CONVERGENCE CHECKS FOR EQUILIBRIUM ITERATION     1


 AVERAGE FORCE                       2.83       TIME AVG. FORCE        1.46    
 LARGEST SCALED RESIDUAL FORCE     -8.029E-03   AT NODE      25821   DOF  2
   INSTANCE: NDBR6-M-1                                                                       
  CORRESPONDING RESIDUAL FORCE     -8.029E-03
 LARGEST INCREMENT OF DISP.         1.500E-05   AT NODE         21   DOF  2
   INSTANCE: NDBR6-M-1                                                                       
 LARGEST CORRECTION TO DISP.        2.963E-08   AT NODE       7320   DOF  2
   INSTANCE: NDBR6-M-1                                                                       
          FORCE     EQUILIBRIUM NOT ACHIEVED WITHIN TOLERANCE.
 
	SYMMETRIC NEW DIRECT SPARSE SOLVER RUNNING ON
 	1 HOST x 1 MPI RANK PER HOST x 8 THREADS PER RANK
        NUMBER OF EQUATIONS:  126306
        NUMBER OF RHS:        1
        NUMBER OF FLOPS:      5.568e+10
        SOLVER ELAPSED TIME:  565ms

               CONVERGENCE CHECKS FOR EQUILIBRIUM ITERATION     2


 AVERAGE FORCE                       2.83       TIME AVG. FORCE        1.46    
 LARGEST SCALED RESIDUAL FORCE     -5.992E-05   AT NODE       7436   DOF  2
   INSTANCE: NDBR6-M-1                                                                       
  CORRESPONDING RESIDUAL FORCE     -5.992E-05
 LARGEST INCREMENT OF DISP.         1.500E-05   AT NODE         21   DOF  2
   INSTANCE: NDBR6-M-1                                                                       
 LARGEST CORRECTION TO DISP.        3.988E-10   AT NODE      32992   DOF  2
   INSTANCE: NDBR6-M-1                                                                       
          THE FORCE     EQUILIBRIUM EQUATIONS HAVE CONVERGED

 ITERATION SUMMARY FOR THE INCREMENT:   2 TOTAL ITERATIONS, OF WHICH
   0 ARE SEVERE DISCONTINUITY ITERATIONS AND  2 ARE EQUILIBRIUM ITERATIONS.

 TIME INCREMENT COMPLETED   10.0    ,  FRACTION OF STEP COMPLETED  0.360    
 STEP TIME COMPLETED        360.    ,  TOTAL TIME COMPLETED         360.    


  INCREMENT    37 STARTS. ATTEMPT NUMBER  1, TIME INCREMENT   10.0    
 
	SYMMETRIC NEW DIRECT SPARSE SOLVER RUNNING ON
 	1 HOST x 1 MPI RANK PER HOST x 8 THREADS PER RANK
        NUMBER OF EQUATIONS:  126306
        NUMBER OF RHS:        1
        NUMBER OF FLOPS:      5.568e+10
        SOLVER ELAPSED TIME:  543ms

               CONVERGENCE CHECKS FOR EQUILIBRIUM ITERATION     1


 AVERAGE FORCE                       2.91       TIME AVG. FORCE        1.50    
 LARGEST SCALED RESIDUAL FORCE      6.825E-03   AT NODE      17894   DOF  2
   INSTANCE: NDBR6-M-1                                                                       
  CORRESPONDING RESIDUAL FORCE      6.825E-03
 LARGEST INCREMENT OF DISP.         1.500E-05   AT NODE         21   DOF  2
   INSTANCE: NDBR6-M-1                                                                       
 LARGEST CORRECTION TO DISP.        3.257E-08   AT NODE       7352   DOF  2
   INSTANCE: NDBR6-M-1                                                                       
          THE FORCE     EQUILIBRIUM EQUATIONS HAVE CONVERGED

 ITERATION SUMMARY FOR THE INCREMENT:   1 TOTAL ITERATIONS, OF WHICH
   0 ARE SEVERE DISCONTINUITY ITERATIONS AND  1 ARE EQUILIBRIUM ITERATIONS.

 TIME INCREMENT COMPLETED   10.0    ,  FRACTION OF STEP COMPLETED  0.370    
 STEP TIME COMPLETED        370.    ,  TOTAL TIME COMPLETED         370.    


  INCREMENT    38 STARTS. ATTEMPT NUMBER  1, TIME INCREMENT   10.0    
 
	SYMMETRIC NEW DIRECT SPARSE SOLVER RUNNING ON
 	1 HOST x 1 MPI RANK PER HOST x 8 THREADS PER RANK
        NUMBER OF EQUATIONS:  126306
        NUMBER OF RHS:        1
        NUMBER OF FLOPS:      5.568e+10
        SOLVER ELAPSED TIME:  556ms

               CONVERGENCE CHECKS FOR EQUILIBRIUM ITERATION     1


 AVERAGE FORCE                       2.98       TIME AVG. FORCE        1.54    
 LARGEST SCALED RESIDUAL FORCE      6.878E-03   AT NODE      20025   DOF  2
   INSTANCE: NDBR6-M-1                                                                       
  CORRESPONDING RESIDUAL FORCE      6.878E-03
 LARGEST INCREMENT OF DISP.         1.500E-05   AT NODE         21   DOF  2
   INSTANCE: NDBR6-M-1                                                                       
 LARGEST CORRECTION TO DISP.        3.405E-08   AT NODE       7384   DOF  2
   INSTANCE: NDBR6-M-1                                                                       
          THE FORCE     EQUILIBRIUM EQUATIONS HAVE CONVERGED

 ITERATION SUMMARY FOR THE INCREMENT:   1 TOTAL ITERATIONS, OF WHICH
   0 ARE SEVERE DISCONTINUITY ITERATIONS AND  1 ARE EQUILIBRIUM ITERATIONS.

 TIME INCREMENT COMPLETED   10.0    ,  FRACTION OF STEP COMPLETED  0.380    
 STEP TIME COMPLETED        380.    ,  TOTAL TIME COMPLETED         380.    


  INCREMENT    39 STARTS. ATTEMPT NUMBER  1, TIME INCREMENT   10.0    
 
	SYMMETRIC NEW DIRECT SPARSE SOLVER RUNNING ON
 	1 HOST x 1 MPI RANK PER HOST x 8 THREADS PER RANK
        NUMBER OF EQUATIONS:  126306
        NUMBER OF RHS:        1
        NUMBER OF FLOPS:      5.568e+10
        SOLVER ELAPSED TIME:  555ms

               CONVERGENCE CHECKS FOR EQUILIBRIUM ITERATION     1


 AVERAGE FORCE                       3.05       TIME AVG. FORCE        1.57    
 LARGEST SCALED RESIDUAL FORCE     -1.012E-02   AT NODE      32482   DOF  2
   INSTANCE: NDBR6-M-1                                                                       
  CORRESPONDING RESIDUAL FORCE     -1.012E-02
 LARGEST INCREMENT OF DISP.         1.500E-05   AT NODE         21   DOF  2
   INSTANCE: NDBR6-M-1                                                                       
 LARGEST CORRECTION TO DISP.        3.595E-08   AT NODE      25746   DOF  2
   INSTANCE: NDBR6-M-1                                                                       
          FORCE     EQUILIBRIUM NOT ACHIEVED WITHIN TOLERANCE.
 
	SYMMETRIC NEW DIRECT SPARSE SOLVER RUNNING ON
 	1 HOST x 1 MPI RANK PER HOST x 8 THREADS PER RANK
        NUMBER OF EQUATIONS:  126306
        NUMBER OF RHS:        1
        NUMBER OF FLOPS:      5.568e+10
        SOLVER ELAPSED TIME:  546ms

               CONVERGENCE CHECKS FOR EQUILIBRIUM ITERATION     2


 AVERAGE FORCE                       3.05       TIME AVG. FORCE        1.57    
 LARGEST SCALED RESIDUAL FORCE     -9.613E-05   AT NODE      17803   DOF  2
   INSTANCE: NDBR6-M-1                                                                       
  CORRESPONDING RESIDUAL FORCE     -9.613E-05
 LARGEST INCREMENT OF DISP.         1.500E-05   AT NODE         21   DOF  2
   INSTANCE: NDBR6-M-1                                                                       
 LARGEST CORRECTION TO DISP.       -4.818E-10   AT NODE      12137   DOF  3
   INSTANCE: NDBR6-M-1                                                                       
          THE FORCE     EQUILIBRIUM EQUATIONS HAVE CONVERGED

 ITERATION SUMMARY FOR THE INCREMENT:   2 TOTAL ITERATIONS, OF WHICH
   0 ARE SEVERE DISCONTINUITY ITERATIONS AND  2 ARE EQUILIBRIUM ITERATIONS.

 TIME INCREMENT COMPLETED   10.0    ,  FRACTION OF STEP COMPLETED  0.390    
 STEP TIME COMPLETED        390.    ,  TOTAL TIME COMPLETED         390.    


  INCREMENT    40 STARTS. ATTEMPT NUMBER  1, TIME INCREMENT   10.0    
 
	SYMMETRIC NEW DIRECT SPARSE SOLVER RUNNING ON
 	1 HOST x 1 MPI RANK PER HOST x 8 THREADS PER RANK
        NUMBER OF EQUATIONS:  126306
        NUMBER OF RHS:        1
        NUMBER OF FLOPS:      5.568e+10
        SOLVER ELAPSED TIME:  548ms

               CONVERGENCE CHECKS FOR EQUILIBRIUM ITERATION     1


 AVERAGE FORCE                       3.12       TIME AVG. FORCE        1.61    
 LARGEST SCALED RESIDUAL FORCE     -9.639E-03   AT NODE      32350   DOF  2
   INSTANCE: NDBR6-M-1                                                                       
  CORRESPONDING RESIDUAL FORCE     -9.639E-03
 LARGEST INCREMENT OF DISP.         1.500E-05   AT NODE         21   DOF  2
   INSTANCE: NDBR6-M-1                                                                       
 LARGEST CORRECTION TO DISP.        3.777E-08   AT NODE       7479   DOF  2
   INSTANCE: NDBR6-M-1                                                                       
          FORCE     EQUILIBRIUM NOT ACHIEVED WITHIN TOLERANCE.
 
	SYMMETRIC NEW DIRECT SPARSE SOLVER RUNNING ON
 	1 HOST x 1 MPI RANK PER HOST x 8 THREADS PER RANK
        NUMBER OF EQUATIONS:  126306
        NUMBER OF RHS:        1
        NUMBER OF FLOPS:      5.568e+10
        SOLVER ELAPSED TIME:  549ms

               CONVERGENCE CHECKS FOR EQUILIBRIUM ITERATION     2


 AVERAGE FORCE                       3.12       TIME AVG. FORCE        1.61    
 LARGEST SCALED RESIDUAL FORCE      2.185E-04   AT NODE      15615   DOF  2
   INSTANCE: NDBR6-M-1                                                                       
  CORRESPONDING RESIDUAL FORCE      2.185E-04
 LARGEST INCREMENT OF DISP.         1.500E-05   AT NODE         21   DOF  2
   INSTANCE: NDBR6-M-1                                                                       
 LARGEST CORRECTION TO DISP.        5.871E-10   AT NODE      26470   DOF  2
   INSTANCE: NDBR6-M-1                                                                       
          THE FORCE     EQUILIBRIUM EQUATIONS HAVE CONVERGED

 ITERATION SUMMARY FOR THE INCREMENT:   2 TOTAL ITERATIONS, OF WHICH
   0 ARE SEVERE DISCONTINUITY ITERATIONS AND  2 ARE EQUILIBRIUM ITERATIONS.

 TIME INCREMENT COMPLETED   10.0    ,  FRACTION OF STEP COMPLETED  0.400    
 STEP TIME COMPLETED        400.    ,  TOTAL TIME COMPLETED         400.    


  INCREMENT    41 STARTS. ATTEMPT NUMBER  1, TIME INCREMENT   10.0    
 
	SYMMETRIC NEW DIRECT SPARSE SOLVER RUNNING ON
 	1 HOST x 1 MPI RANK PER HOST x 8 THREADS PER RANK
        NUMBER OF EQUATIONS:  126306
        NUMBER OF RHS:        1
        NUMBER OF FLOPS:      5.568e+10
        SOLVER ELAPSED TIME:  551ms

               CONVERGENCE CHECKS FOR EQUILIBRIUM ITERATION     1


 AVERAGE FORCE                       3.19       TIME AVG. FORCE        1.65    
 LARGEST SCALED RESIDUAL FORCE      1.173E-02   AT NODE      24829   DOF  2
   INSTANCE: NDBR6-M-1                                                                       
  CORRESPONDING RESIDUAL FORCE      1.173E-02
 LARGEST INCREMENT OF DISP.         1.500E-05   AT NODE         21   DOF  2
   INSTANCE: NDBR6-M-1                                                                       
 LARGEST CORRECTION TO DISP.        4.187E-08   AT NODE       7512   DOF  2
   INSTANCE: NDBR6-M-1                                                                       
          FORCE     EQUILIBRIUM NOT ACHIEVED WITHIN TOLERANCE.
 
	SYMMETRIC NEW DIRECT SPARSE SOLVER RUNNING ON
 	1 HOST x 1 MPI RANK PER HOST x 8 THREADS PER RANK
        NUMBER OF EQUATIONS:  126306
        NUMBER OF RHS:        1
        NUMBER OF FLOPS:      5.568e+10
        SOLVER ELAPSED TIME:  531ms

               CONVERGENCE CHECKS FOR EQUILIBRIUM ITERATION     2


 AVERAGE FORCE                       3.19       TIME AVG. FORCE        1.65    
 LARGEST SCALED RESIDUAL FORCE     -4.276E-05   AT NODE      32096   DOF  2
   INSTANCE: NDBR6-M-1                                                                       
  CORRESPONDING RESIDUAL FORCE     -4.276E-05
 LARGEST INCREMENT OF DISP.         1.500E-05   AT NODE         21   DOF  2
   INSTANCE: NDBR6-M-1                                                                       
 LARGEST CORRECTION TO DISP.        7.414E-10   AT NODE       7660   DOF  2
   INSTANCE: NDBR6-M-1                                                                       
          THE FORCE     EQUILIBRIUM EQUATIONS HAVE CONVERGED

 ITERATION SUMMARY FOR THE INCREMENT:   2 TOTAL ITERATIONS, OF WHICH
   0 ARE SEVERE DISCONTINUITY ITERATIONS AND  2 ARE EQUILIBRIUM ITERATIONS.

 TIME INCREMENT COMPLETED   10.0    ,  FRACTION OF STEP COMPLETED  0.410    
 STEP TIME COMPLETED        410.    ,  TOTAL TIME COMPLETED         410.    


  INCREMENT    42 STARTS. ATTEMPT NUMBER  1, TIME INCREMENT   10.0    
 
	SYMMETRIC NEW DIRECT SPARSE SOLVER RUNNING ON
 	1 HOST x 1 MPI RANK PER HOST x 8 THREADS PER RANK
        NUMBER OF EQUATIONS:  126306
        NUMBER OF RHS:        1
        NUMBER OF FLOPS:      5.568e+10
        SOLVER ELAPSED TIME:  555ms

               CONVERGENCE CHECKS FOR EQUILIBRIUM ITERATION     1


 AVERAGE FORCE                       3.25       TIME AVG. FORCE        1.69    
 LARGEST SCALED RESIDUAL FORCE     -1.165E-02   AT NODE      26849   DOF  2
   INSTANCE: NDBR6-M-1                                                                       
  CORRESPONDING RESIDUAL FORCE     -1.165E-02
 LARGEST INCREMENT OF DISP.         1.500E-05   AT NODE         21   DOF  2
   INSTANCE: NDBR6-M-1                                                                       
 LARGEST CORRECTION TO DISP.        4.682E-08   AT NODE      32661   DOF  2
   INSTANCE: NDBR6-M-1                                                                       
          FORCE     EQUILIBRIUM NOT ACHIEVED WITHIN TOLERANCE.
 
	SYMMETRIC NEW DIRECT SPARSE SOLVER RUNNING ON
 	1 HOST x 1 MPI RANK PER HOST x 8 THREADS PER RANK
        NUMBER OF EQUATIONS:  126306
        NUMBER OF RHS:        1
        NUMBER OF FLOPS:      5.568e+10
        SOLVER ELAPSED TIME:  530ms

               CONVERGENCE CHECKS FOR EQUILIBRIUM ITERATION     2


 AVERAGE FORCE                       3.25       TIME AVG. FORCE        1.69    
 LARGEST SCALED RESIDUAL FORCE     -1.157E-04   AT NODE      16880   DOF  2
   INSTANCE: NDBR6-M-1                                                                       
  CORRESPONDING RESIDUAL FORCE     -1.157E-04
 LARGEST INCREMENT OF DISP.         1.500E-05   AT NODE         21   DOF  2
   INSTANCE: NDBR6-M-1                                                                       
 LARGEST CORRECTION TO DISP.        7.422E-10   AT NODE      26870   DOF  2
   INSTANCE: NDBR6-M-1                                                                       
          THE FORCE     EQUILIBRIUM EQUATIONS HAVE CONVERGED

 ITERATION SUMMARY FOR THE INCREMENT:   2 TOTAL ITERATIONS, OF WHICH
   0 ARE SEVERE DISCONTINUITY ITERATIONS AND  2 ARE EQUILIBRIUM ITERATIONS.

 TIME INCREMENT COMPLETED   10.0    ,  FRACTION OF STEP COMPLETED  0.420    
 STEP TIME COMPLETED        420.    ,  TOTAL TIME COMPLETED         420.    


  INCREMENT    43 STARTS. ATTEMPT NUMBER  1, TIME INCREMENT   10.0    
 
	SYMMETRIC NEW DIRECT SPARSE SOLVER RUNNING ON
 	1 HOST x 1 MPI RANK PER HOST x 8 THREADS PER RANK
        NUMBER OF EQUATIONS:  126306
        NUMBER OF RHS:        1
        NUMBER OF FLOPS:      5.568e+10
        SOLVER ELAPSED TIME:  552ms

               CONVERGENCE CHECKS FOR EQUILIBRIUM ITERATION     1


 AVERAGE FORCE                       3.31       TIME AVG. FORCE        1.73    
 LARGEST SCALED RESIDUAL FORCE      1.116E-02   AT NODE      22163   DOF  2
   INSTANCE: NDBR6-M-1                                                                       
  CORRESPONDING RESIDUAL FORCE      1.116E-02
 LARGEST INCREMENT OF DISP.         1.500E-05   AT NODE         21   DOF  2
   INSTANCE: NDBR6-M-1                                                                       
 LARGEST CORRECTION TO DISP.        5.337E-08   AT NODE      32409   DOF  2
   INSTANCE: NDBR6-M-1                                                                       
          FORCE     EQUILIBRIUM NOT ACHIEVED WITHIN TOLERANCE.
 
	SYMMETRIC NEW DIRECT SPARSE SOLVER RUNNING ON
 	1 HOST x 1 MPI RANK PER HOST x 8 THREADS PER RANK
        NUMBER OF EQUATIONS:  126306
        NUMBER OF RHS:        1
        NUMBER OF FLOPS:      5.568e+10
        SOLVER ELAPSED TIME:  548ms

               CONVERGENCE CHECKS FOR EQUILIBRIUM ITERATION     2


 AVERAGE FORCE                       3.31       TIME AVG. FORCE        1.73    
 LARGEST SCALED RESIDUAL FORCE     -2.530E-04   AT NODE      16807   DOF  2
   INSTANCE: NDBR6-M-1                                                                       
  CORRESPONDING RESIDUAL FORCE     -2.530E-04
 LARGEST INCREMENT OF DISP.         1.500E-05   AT NODE         21   DOF  2
   INSTANCE: NDBR6-M-1                                                                       
 LARGEST CORRECTION TO DISP.        8.129E-10   AT NODE      31732   DOF  2
   INSTANCE: NDBR6-M-1                                                                       
          THE FORCE     EQUILIBRIUM EQUATIONS HAVE CONVERGED

 ITERATION SUMMARY FOR THE INCREMENT:   2 TOTAL ITERATIONS, OF WHICH
   0 ARE SEVERE DISCONTINUITY ITERATIONS AND  2 ARE EQUILIBRIUM ITERATIONS.

 TIME INCREMENT COMPLETED   10.0    ,  FRACTION OF STEP COMPLETED  0.430    
 STEP TIME COMPLETED        430.    ,  TOTAL TIME COMPLETED         430.    


  INCREMENT    44 STARTS. ATTEMPT NUMBER  1, TIME INCREMENT   10.0    
 
	SYMMETRIC NEW DIRECT SPARSE SOLVER RUNNING ON
 	1 HOST x 1 MPI RANK PER HOST x 8 THREADS PER RANK
        NUMBER OF EQUATIONS:  126306
        NUMBER OF RHS:        1
        NUMBER OF FLOPS:      5.568e+10
        SOLVER ELAPSED TIME:  541ms

               CONVERGENCE CHECKS FOR EQUILIBRIUM ITERATION     1


 AVERAGE FORCE                       3.36       TIME AVG. FORCE        1.76    
 LARGEST SCALED RESIDUAL FORCE     -1.352E-02   AT NODE      16592   DOF  2
   INSTANCE: NDBR6-M-1                                                                       
  CORRESPONDING RESIDUAL FORCE     -1.352E-02
 LARGEST INCREMENT OF DISP.         1.500E-05   AT NODE         21   DOF  2
   INSTANCE: NDBR6-M-1                                                                       
 LARGEST CORRECTION TO DISP.        6.331E-08   AT NODE      26786   DOF  2
   INSTANCE: NDBR6-M-1                                                                       
          FORCE     EQUILIBRIUM NOT ACHIEVED WITHIN TOLERANCE.
 
	SYMMETRIC NEW DIRECT SPARSE SOLVER RUNNING ON
 	1 HOST x 1 MPI RANK PER HOST x 8 THREADS PER RANK
        NUMBER OF EQUATIONS:  126306
        NUMBER OF RHS:        1
        NUMBER OF FLOPS:      5.568e+10
        SOLVER ELAPSED TIME:  550ms

               CONVERGENCE CHECKS FOR EQUILIBRIUM ITERATION     2


 AVERAGE FORCE                       3.36       TIME AVG. FORCE        1.76    
 LARGEST SCALED RESIDUAL FORCE     -2.283E-04   AT NODE      24327   DOF  2
   INSTANCE: NDBR6-M-1                                                                       
  CORRESPONDING RESIDUAL FORCE     -2.283E-04
 LARGEST INCREMENT OF DISP.         1.500E-05   AT NODE         21   DOF  2
   INSTANCE: NDBR6-M-1                                                                       
 LARGEST CORRECTION TO DISP.        1.054E-09   AT NODE      27387   DOF  2
   INSTANCE: NDBR6-M-1                                                                       
          THE FORCE     EQUILIBRIUM EQUATIONS HAVE CONVERGED

 ITERATION SUMMARY FOR THE INCREMENT:   2 TOTAL ITERATIONS, OF WHICH
   0 ARE SEVERE DISCONTINUITY ITERATIONS AND  2 ARE EQUILIBRIUM ITERATIONS.

 TIME INCREMENT COMPLETED   10.0    ,  FRACTION OF STEP COMPLETED  0.440    
[...]


  INCREMENT    97 STARTS. ATTEMPT NUMBER  1, TIME INCREMENT   10.0    
 
	SYMMETRIC NEW DIRECT SPARSE SOLVER RUNNING ON
 	1 HOST x 1 MPI RANK PER HOST x 8 THREADS PER RANK
        NUMBER OF EQUATIONS:  126306
        NUMBER OF RHS:        1
        NUMBER OF FLOPS:      5.568e+10
        SOLVER ELAPSED TIME:  546ms

               CONVERGENCE CHECKS FOR EQUILIBRIUM ITERATION     1


 AVERAGE FORCE                       2.42       TIME AVG. FORCE        2.82    
 LARGEST SCALED RESIDUAL FORCE      -3.04       AT NODE       6666   DOF  3
   INSTANCE: NDBR6-M-1                                                                       
  CORRESPONDING RESIDUAL FORCE      -3.04    
 LARGEST INCREMENT OF DISP.         2.829E-05   AT NODE      30550   DOF  2
   INSTANCE: NDBR6-M-1                                                                       
 LARGEST CORRECTION TO DISP.        3.969E-06   AT NODE       9772   DOF  2
   INSTANCE: NDBR6-M-1                                                                       
          FORCE     EQUILIBRIUM NOT ACHIEVED WITHIN TOLERANCE.
 
	SYMMETRIC NEW DIRECT SPARSE SOLVER RUNNING ON
 	1 HOST x 1 MPI RANK PER HOST x 8 THREADS PER RANK
        NUMBER OF EQUATIONS:  126306
        NUMBER OF RHS:        1
        NUMBER OF FLOPS:      5.568e+10
        SOLVER ELAPSED TIME:  550ms

               CONVERGENCE CHECKS FOR EQUILIBRIUM ITERATION     2


 AVERAGE FORCE                       2.44       TIME AVG. FORCE        2.82    
 LARGEST SCALED RESIDUAL FORCE      0.551       AT NODE      31062   DOF  3
   INSTANCE: NDBR6-M-1                                                                       
  CORRESPONDING RESIDUAL FORCE      0.551    
 LARGEST INCREMENT OF DISP.         2.611E-05   AT NODE       8713   DOF  2
   INSTANCE: NDBR6-M-1                                                                       
 LARGEST CORRECTION TO DISP.       -2.208E-06   AT NODE       6666   DOF  2
   INSTANCE: NDBR6-M-1                                                                       
          FORCE     EQUILIBRIUM NOT ACHIEVED WITHIN TOLERANCE.
 
	SYMMETRIC NEW DIRECT SPARSE SOLVER RUNNING ON
 	1 HOST x 1 MPI RANK PER HOST x 8 THREADS PER RANK
        NUMBER OF EQUATIONS:  126306
        NUMBER OF RHS:        1
        NUMBER OF FLOPS:      5.568e+10
        SOLVER ELAPSED TIME:  546ms

               CONVERGENCE CHECKS FOR EQUILIBRIUM ITERATION     3


 AVERAGE FORCE                       2.44       TIME AVG. FORCE        2.82    
 LARGEST SCALED RESIDUAL FORCE      0.113       AT NODE      30425   DOF  3
   INSTANCE: NDBR6-M-1                                                                       
  CORRESPONDING RESIDUAL FORCE      0.113    
 LARGEST INCREMENT OF DISP.         2.611E-05   AT NODE       8681   DOF  2
   INSTANCE: NDBR6-M-1                                                                       
 LARGEST CORRECTION TO DISP.       -1.323E-07   AT NODE      10367   DOF  2
   INSTANCE: NDBR6-M-1                                                                       
          FORCE     EQUILIBRIUM NOT ACHIEVED WITHIN TOLERANCE.
 
	SYMMETRIC NEW DIRECT SPARSE SOLVER RUNNING ON
 	1 HOST x 1 MPI RANK PER HOST x 8 THREADS PER RANK
        NUMBER OF EQUATIONS:  126306
        NUMBER OF RHS:        1
        NUMBER OF FLOPS:      5.568e+10
        SOLVER ELAPSED TIME:  547ms

               CONVERGENCE CHECKS FOR EQUILIBRIUM ITERATION     4


 AVERAGE FORCE                       2.44       TIME AVG. FORCE        2.82    
 LARGEST SCALED RESIDUAL FORCE      9.131E-03   AT NODE      31831   DOF  3
   INSTANCE: NDBR6-M-1                                                                       
  CORRESPONDING RESIDUAL FORCE      9.131E-03
 LARGEST INCREMENT OF DISP.         2.610E-05   AT NODE       8713   DOF  2
   INSTANCE: NDBR6-M-1                                                                       
 LARGEST CORRECTION TO DISP.       -2.886E-08   AT NODE       9770   DOF  2
   INSTANCE: NDBR6-M-1                                                                       
          THE FORCE     EQUILIBRIUM EQUATIONS HAVE CONVERGED

 ITERATION SUMMARY FOR THE INCREMENT:   4 TOTAL ITERATIONS, OF WHICH
   0 ARE SEVERE DISCONTINUITY ITERATIONS AND  4 ARE EQUILIBRIUM ITERATIONS.

 TIME INCREMENT COMPLETED   10.0    ,  FRACTION OF STEP COMPLETED  0.970    
 STEP TIME COMPLETED        970.    ,  TOTAL TIME COMPLETED         970.    


  INCREMENT    98 STARTS. ATTEMPT NUMBER  1, TIME INCREMENT   10.0    
 
	SYMMETRIC NEW DIRECT SPARSE SOLVER RUNNING ON
 	1 HOST x 1 MPI RANK PER HOST x 8 THREADS PER RANK
        NUMBER OF EQUATIONS:  126306
        NUMBER OF RHS:        1
        NUMBER OF FLOPS:      5.568e+10
        SOLVER ELAPSED TIME:  559ms

               CONVERGENCE CHECKS FOR EQUILIBRIUM ITERATION     1


 AVERAGE FORCE                       2.34       TIME AVG. FORCE        2.81    
 LARGEST SCALED RESIDUAL FORCE       2.54       AT NODE      29910   DOF  3
   INSTANCE: NDBR6-M-1                                                                       
  CORRESPONDING RESIDUAL FORCE       2.54    
 LARGEST INCREMENT OF DISP.         2.732E-05   AT NODE      31318   DOF  2
   INSTANCE: NDBR6-M-1                                                                       
 LARGEST CORRECTION TO DISP.        4.200E-06   AT NODE       9775   DOF  2
   INSTANCE: NDBR6-M-1                                                                       
          FORCE     EQUILIBRIUM NOT ACHIEVED WITHIN TOLERANCE.
 
	SYMMETRIC NEW DIRECT SPARSE SOLVER RUNNING ON
 	1 HOST x 1 MPI RANK PER HOST x 8 THREADS PER RANK
        NUMBER OF EQUATIONS:  126306
        NUMBER OF RHS:        1
        NUMBER OF FLOPS:      5.568e+10
        SOLVER ELAPSED TIME:  552ms

               CONVERGENCE CHECKS FOR EQUILIBRIUM ITERATION     2


 AVERAGE FORCE                       2.35       TIME AVG. FORCE        2.81    
 LARGEST SCALED RESIDUAL FORCE     -0.689       AT NODE       6185   DOF  3
   INSTANCE: NDBR6-M-1                                                                       
  CORRESPONDING RESIDUAL FORCE     -0.689    
 LARGEST INCREMENT OF DISP.         2.553E-05   AT NODE       8777   DOF  2
   INSTANCE: NDBR6-M-1                                                                       
 LARGEST CORRECTION TO DISP.       -1.827E-06   AT NODE       6730   DOF  2
   INSTANCE: NDBR6-M-1                                                                       
          FORCE     EQUILIBRIUM NOT ACHIEVED WITHIN TOLERANCE.
 
	SYMMETRIC NEW DIRECT SPARSE SOLVER RUNNING ON
 	1 HOST x 1 MPI RANK PER HOST x 8 THREADS PER RANK
        NUMBER OF EQUATIONS:  126306
        NUMBER OF RHS:        1
        NUMBER OF FLOPS:      5.568e+10
        SOLVER ELAPSED TIME:  555ms

               CONVERGENCE CHECKS FOR EQUILIBRIUM ITERATION     3


 AVERAGE FORCE                       2.35       TIME AVG. FORCE        2.81    
 LARGEST SCALED RESIDUAL FORCE      0.181       AT NODE       6314   DOF  2
   INSTANCE: NDBR6-M-1                                                                       
  CORRESPONDING RESIDUAL FORCE      0.181    
 LARGEST INCREMENT OF DISP.         2.553E-05   AT NODE       8809   DOF  2
   INSTANCE: NDBR6-M-1                                                                       
 LARGEST CORRECTION TO DISP.       -1.475E-07   AT NODE       6185   DOF  3
   INSTANCE: NDBR6-M-1                                                                       
          FORCE     EQUILIBRIUM NOT ACHIEVED WITHIN TOLERANCE.
 
	SYMMETRIC NEW DIRECT SPARSE SOLVER RUNNING ON
 	1 HOST x 1 MPI RANK PER HOST x 8 THREADS PER RANK
        NUMBER OF EQUATIONS:  126306
        NUMBER OF RHS:        1
        NUMBER OF FLOPS:      5.568e+10
        SOLVER ELAPSED TIME:  540ms

               CONVERGENCE CHECKS FOR EQUILIBRIUM ITERATION     4


 AVERAGE FORCE                       2.35       TIME AVG. FORCE        2.81    
 LARGEST SCALED RESIDUAL FORCE      2.630E-02   AT NODE      30295   DOF  2
   INSTANCE: NDBR6-M-1                                                                       
  CORRESPONDING RESIDUAL FORCE      2.630E-02
 LARGEST INCREMENT OF DISP.         2.552E-05   AT NODE       8809   DOF  2
   INSTANCE: NDBR6-M-1                                                                       
 LARGEST CORRECTION TO DISP.       -4.762E-08   AT NODE       9772   DOF  2
   INSTANCE: NDBR6-M-1                                                                       
          FORCE     EQUILIBRIUM NOT ACHIEVED WITHIN TOLERANCE.
 
	SYMMETRIC NEW DIRECT SPARSE SOLVER RUNNING ON
 	1 HOST x 1 MPI RANK PER HOST x 8 THREADS PER RANK
        NUMBER OF EQUATIONS:  126306
        NUMBER OF RHS:        1
        NUMBER OF FLOPS:      5.568e+10
        SOLVER ELAPSED TIME:  537ms

               CONVERGENCE CHECKS FOR EQUILIBRIUM ITERATION     5


 AVERAGE FORCE                       2.35       TIME AVG. FORCE        2.81    
 LARGEST SCALED RESIDUAL FORCE     -3.003E-03   AT NODE      30676   DOF  3
   INSTANCE: NDBR6-M-1                                                                       
  CORRESPONDING RESIDUAL FORCE     -3.003E-03
 LARGEST INCREMENT OF DISP.         2.552E-05   AT NODE       8809   DOF  2
   INSTANCE: NDBR6-M-1                                                                       
 LARGEST CORRECTION TO DISP.       -2.501E-09   AT NODE      10367   DOF  2
   INSTANCE: NDBR6-M-1                                                                       
          THE FORCE     EQUILIBRIUM EQUATIONS HAVE CONVERGED

 ITERATION SUMMARY FOR THE INCREMENT:   5 TOTAL ITERATIONS, OF WHICH
   0 ARE SEVERE DISCONTINUITY ITERATIONS AND  5 ARE EQUILIBRIUM ITERATIONS.

 TIME INCREMENT COMPLETED   10.0    ,  FRACTION OF STEP COMPLETED  0.980    
 STEP TIME COMPLETED        980.    ,  TOTAL TIME COMPLETED         980.    


  INCREMENT    99 STARTS. ATTEMPT NUMBER  1, TIME INCREMENT   10.0    
 
	SYMMETRIC NEW DIRECT SPARSE SOLVER RUNNING ON
 	1 HOST x 1 MPI RANK PER HOST x 8 THREADS PER RANK
        NUMBER OF EQUATIONS:  126306
        NUMBER OF RHS:        1
        NUMBER OF FLOPS:      5.568e+10
        SOLVER ELAPSED TIME:  547ms

               CONVERGENCE CHECKS FOR EQUILIBRIUM ITERATION     1


 AVERAGE FORCE                       2.25       TIME AVG. FORCE        2.81    
 LARGEST SCALED RESIDUAL FORCE      -3.94       AT NODE       6185   DOF  3
   INSTANCE: NDBR6-M-1                                                                       
  CORRESPONDING RESIDUAL FORCE      -3.94    
 LARGEST INCREMENT OF DISP.         2.668E-05   AT NODE       8937   DOF  2
   INSTANCE: NDBR6-M-1                                                                       
 LARGEST CORRECTION TO DISP.        3.978E-06   AT NODE      14939   DOF  2
   INSTANCE: NDBR6-M-1                                                                       
          FORCE     EQUILIBRIUM NOT ACHIEVED WITHIN TOLERANCE.
 
	SYMMETRIC NEW DIRECT SPARSE SOLVER RUNNING ON
 	1 HOST x 1 MPI RANK PER HOST x 8 THREADS PER RANK
        NUMBER OF EQUATIONS:  126306
        NUMBER OF RHS:        1
        NUMBER OF FLOPS:      5.568e+10
        SOLVER ELAPSED TIME:  540ms

               CONVERGENCE CHECKS FOR EQUILIBRIUM ITERATION     2


 AVERAGE FORCE                       2.27       TIME AVG. FORCE        2.81    
 LARGEST SCALED RESIDUAL FORCE     -0.474       AT NODE       6057   DOF  3
   INSTANCE: NDBR6-M-1                                                                       
  CORRESPONDING RESIDUAL FORCE     -0.474    
 LARGEST INCREMENT OF DISP.         2.510E-05   AT NODE       8905   DOF  2
   INSTANCE: NDBR6-M-1                                                                       
 LARGEST CORRECTION TO DISP.       -1.698E-06   AT NODE       9774   DOF  2
   INSTANCE: NDBR6-M-1                                                                       
          FORCE     EQUILIBRIUM NOT ACHIEVED WITHIN TOLERANCE.
 
	SYMMETRIC NEW DIRECT SPARSE SOLVER RUNNING ON
 	1 HOST x 1 MPI RANK PER HOST x 8 THREADS PER RANK
        NUMBER OF EQUATIONS:  126306
        NUMBER OF RHS:        1
        NUMBER OF FLOPS:      5.568e+10
        SOLVER ELAPSED TIME:  556ms

               CONVERGENCE CHECKS FOR EQUILIBRIUM ITERATION     3


 AVERAGE FORCE                       2.27       TIME AVG. FORCE        2.81    
 LARGEST SCALED RESIDUAL FORCE     -0.119       AT NODE      29141   DOF  3
   INSTANCE: NDBR6-M-1                                                                       
  CORRESPONDING RESIDUAL FORCE     -0.119    
 LARGEST INCREMENT OF DISP.         2.511E-05   AT NODE       8873   DOF  2
   INSTANCE: NDBR6-M-1                                                                       
 LARGEST CORRECTION TO DISP.       -1.009E-07   AT NODE       6057   DOF  3
   INSTANCE: NDBR6-M-1                                                                       
          FORCE     EQUILIBRIUM NOT ACHIEVED WITHIN TOLERANCE.
 
	SYMMETRIC NEW DIRECT SPARSE SOLVER RUNNING ON
 	1 HOST x 1 MPI RANK PER HOST x 8 THREADS PER RANK
        NUMBER OF EQUATIONS:  126306
        NUMBER OF RHS:        1
        NUMBER OF FLOPS:      5.568e+10
        SOLVER ELAPSED TIME:  524ms

               CONVERGENCE CHECKS FOR EQUILIBRIUM ITERATION     4


 AVERAGE FORCE                       2.27       TIME AVG. FORCE        2.81    
 LARGEST SCALED RESIDUAL FORCE      1.166E-02   AT NODE      29527   DOF  3
   INSTANCE: NDBR6-M-1                                                                       
  CORRESPONDING RESIDUAL FORCE      1.166E-02
 LARGEST INCREMENT OF DISP.         2.510E-05   AT NODE       8873   DOF  2
   INSTANCE: NDBR6-M-1                                                                       
 LARGEST CORRECTION TO DISP.       -2.323E-08   AT NODE       9778   DOF  2
   INSTANCE: NDBR6-M-1                                                                       
          THE FORCE     EQUILIBRIUM EQUATIONS HAVE CONVERGED

 ITERATION SUMMARY FOR THE INCREMENT:   4 TOTAL ITERATIONS, OF WHICH
   0 ARE SEVERE DISCONTINUITY ITERATIONS AND  4 ARE EQUILIBRIUM ITERATIONS.

 TIME INCREMENT COMPLETED   10.0    ,  FRACTION OF STEP COMPLETED  0.990    
 STEP TIME COMPLETED        990.    ,  TOTAL TIME COMPLETED         990.    


  INCREMENT   100 STARTS. ATTEMPT NUMBER  1, TIME INCREMENT   10.0    
 
	SYMMETRIC NEW DIRECT SPARSE SOLVER RUNNING ON
 	1 HOST x 1 MPI RANK PER HOST x 8 THREADS PER RANK
        NUMBER OF EQUATIONS:  126306
        NUMBER OF RHS:        1
        NUMBER OF FLOPS:      5.568e+10
        SOLVER ELAPSED TIME:  565ms

               CONVERGENCE CHECKS FOR EQUILIBRIUM ITERATION     1


 AVERAGE FORCE                       2.17       TIME AVG. FORCE        2.80    
 LARGEST SCALED RESIDUAL FORCE      -2.45       AT NODE       6057   DOF  3
   INSTANCE: NDBR6-M-1                                                                       
  CORRESPONDING RESIDUAL FORCE      -2.45    
 LARGEST INCREMENT OF DISP.         2.613E-05   AT NODE       9001   DOF  2
   INSTANCE: NDBR6-M-1                                                                       
 LARGEST CORRECTION TO DISP.        3.395E-06   AT NODE      14937   DOF  2
   INSTANCE: NDBR6-M-1                                                                       
          FORCE     EQUILIBRIUM NOT ACHIEVED WITHIN TOLERANCE.
 
	SYMMETRIC NEW DIRECT SPARSE SOLVER RUNNING ON
 	1 HOST x 1 MPI RANK PER HOST x 8 THREADS PER RANK
        NUMBER OF EQUATIONS:  126306
        NUMBER OF RHS:        1
        NUMBER OF FLOPS:      5.568e+10
        SOLVER ELAPSED TIME:  557ms

               CONVERGENCE CHECKS FOR EQUILIBRIUM ITERATION     2


 AVERAGE FORCE                       2.18       TIME AVG. FORCE        2.80    
 LARGEST SCALED RESIDUAL FORCE      0.397       AT NODE      24897   DOF  3
   INSTANCE: NDBR6-M-1                                                                       
  CORRESPONDING RESIDUAL FORCE      0.397    
 LARGEST INCREMENT OF DISP.         2.470E-05   AT NODE       8937   DOF  2
   INSTANCE: NDBR6-M-1                                                                       
 LARGEST CORRECTION TO DISP.       -1.516E-06   AT NODE       9777   DOF  2
   INSTANCE: NDBR6-M-1                                                                       
          FORCE     EQUILIBRIUM NOT ACHIEVED WITHIN TOLERANCE.
 
	SYMMETRIC NEW DIRECT SPARSE SOLVER RUNNING ON
 	1 HOST x 1 MPI RANK PER HOST x 8 THREADS PER RANK
        NUMBER OF EQUATIONS:  126306
        NUMBER OF RHS:        1
        NUMBER OF FLOPS:      5.568e+10
        SOLVER ELAPSED TIME:  550ms

               CONVERGENCE CHECKS FOR EQUILIBRIUM ITERATION     3


 AVERAGE FORCE                       2.18       TIME AVG. FORCE        2.80    
 LARGEST SCALED RESIDUAL FORCE      5.060E-02   AT NODE      24893   DOF  3
   INSTANCE: NDBR6-M-1                                                                       
  CORRESPONDING RESIDUAL FORCE      5.060E-02
 LARGEST INCREMENT OF DISP.         2.471E-05   AT NODE       8937   DOF  2
   INSTANCE: NDBR6-M-1                                                                       
 LARGEST CORRECTION TO DISP.       -5.563E-08   AT NODE       6793   DOF  3
   INSTANCE: NDBR6-M-1                                                                       
          FORCE     EQUILIBRIUM NOT ACHIEVED WITHIN TOLERANCE.
 
	SYMMETRIC NEW DIRECT SPARSE SOLVER RUNNING ON
 	1 HOST x 1 MPI RANK PER HOST x 8 THREADS PER RANK
        NUMBER OF EQUATIONS:  126306
        NUMBER OF RHS:        1
        NUMBER OF FLOPS:      5.568e+10
        SOLVER ELAPSED TIME:  550ms

               CONVERGENCE CHECKS FOR EQUILIBRIUM ITERATION     4


 AVERAGE FORCE                       2.18       TIME AVG. FORCE        2.80    
 LARGEST SCALED RESIDUAL FORCE      4.262E-03   AT NODE      31447   DOF  3
   INSTANCE: NDBR6-M-1                                                                       
  CORRESPONDING RESIDUAL FORCE      4.262E-03
 LARGEST INCREMENT OF DISP.         2.470E-05   AT NODE       8937   DOF  2
   INSTANCE: NDBR6-M-1                                                                       
 LARGEST CORRECTION TO DISP.        9.765E-09   AT NODE      14925   DOF  2
   INSTANCE: NDBR6-M-1                                                                       
          THE FORCE     EQUILIBRIUM EQUATIONS HAVE CONVERGED

 ITERATION SUMMARY FOR THE INCREMENT:   4 TOTAL ITERATIONS, OF WHICH
   0 ARE SEVERE DISCONTINUITY ITERATIONS AND  4 ARE EQUILIBRIUM ITERATIONS.

 TIME INCREMENT COMPLETED   10.0    ,  FRACTION OF STEP COMPLETED   1.00    
 STEP TIME COMPLETED       1.000E+03,  TOTAL TIME COMPLETED        1.000E+03


          THE ANALYSIS HAS BEEN COMPLETED



     ANALYSIS SUMMARY:
     TOTAL OF        100  INCREMENTS
                       0  CUTBACKS IN AUTOMATIC INCREMENTATION
                     217  ITERATIONS INCLUDING CONTACT ITERATIONS IF PRESENT
                     217  PASSES THROUGH THE EQUATION SOLVER OF WHICH 
                     217  INVOLVE MATRIX DECOMPOSITION, INCLUDING
                       0  DECOMPOSITION(S) OF THE MASS MATRIX
                       1  REORDERING OF EQUATIONS TO MINIMIZE WAVEFRONT
                       0  ADDITIONAL RESIDUAL EVALUATIONS FOR LINE SEARCHES
                       0  ADDITIONAL OPERATOR EVALUATIONS FOR LINE SEARCHES
                       5  WARNING MESSAGES DURING USER INPUT PROCESSING
                       0  WARNING MESSAGES DURING ANALYSIS
                       0  ANALYSIS WARNINGS ARE NUMERICAL PROBLEM MESSAGES
                       0  ANALYSIS WARNINGS ARE NEGATIVE EIGENVALUE MESSAGES
                       0  ERROR MESSAGES



     JOB TIME SUMMARY
       USER TIME (SEC)      =     1.30E+03
       SYSTEM TIME (SEC)    =      22.    
       TOTAL CPU TIME (SEC) =     1.32E+03
       WALLCLOCK TIME (SEC) =          318
       MEMORY PEAK (GB)     =            0
