1

   Abaqus 2023.HF4                                  Date 22-Sep-2024   Time 20:36:50
   For use by AALTO UNIVERSITY under license from Dassault Systemes or its subsidiary.

                                                                                 
                                                                                 
 STEP    1     INCREMENT     1     STEP TIME    0.00    


                        S T E P       1     C O U P L E D - T E M P E R A T U R E - D I S P L A C E M E N T   A N A L Y S I S


                                                                                          

          FIXED TIME INCREMENTS
          TIME INCREMENT IS                                     720.    
          TIME PERIOD IS                                       7.200E+03

          CREEP AND SWELLING EFFECTS ARE OMITTED IN THIS STEP
          THE RATE DEPENDENCY WILL BE CONSIDERED IN THIS STEP

          CREEP AND SWELLING EFFECTS WILL BE IGNORED.

 CONVERGENCE TOLERANCE PARAMETERS FOR FORCE    
     CRITERION FOR RESIDUAL FORCE     FOR A NONLINEAR PROBLEM          5.000E-03
     CRITERION FOR DISP.    CORRECTION IN A NONLINEAR PROBLEM          1.000E-02
     INITIAL VALUE OF TIME AVERAGE FORCE                               1.000E-02
     AVERAGE FORCE     IS TIME AVERAGE FORCE    
     ALTERNATE CRIT. FOR RESIDUAL FORCE     FOR A NONLINEAR PROBLEM    2.000E-02
     CRITERION FOR ZERO FORCE     RELATIVE TO TIME AVRG. FORCE         1.000E-05
     CRITERION FOR RESIDUAL FORCE     WHEN THERE IS ZERO FLUX          1.000E-05
     CRITERION FOR DISP.    CORRECTION WHEN THERE IS ZERO FLUX         1.000E-03
     CRITERION FOR RESIDUAL FORCE     FOR A LINEAR INCREMENT           1.000E-08
     FIELD CONVERSION RATIO                                             1.00    
     CRITERION FOR ZERO FORCE     REL. TO TIME AVRG. MAX. FORCE        1.000E-05
     CRITERION FOR ZERO DISP.    RELATIVE TO CHARACTERISTIC LENGTH     1.000E-08

 CONVERGENCE TOLERANCE PARAMETERS FOR HEAT FLUX
     CRITERION FOR RESIDUAL HEAT FLUX FOR A NONLINEAR PROBLEM          5.000E-03
     CRITERION FOR TEMP.    CORRECTION IN A NONLINEAR PROBLEM          1.000E-02
     INITIAL VALUE OF TIME AVERAGE HEAT FLUX                           1.000E-02
     AVERAGE HEAT FLUX IS TIME AVERAGE HEAT FLUX
     ALTERNATE CRIT. FOR RESIDUAL HEAT FLUX FOR A NONLINEAR PROBLEM    2.000E-02
     CRITERION FOR ZERO HEAT FLUX RELATIVE TO TIME AVRG. HEAT FLUX     1.000E-05
     CRITERION FOR RESIDUAL HEAT FLUX WHEN THERE IS ZERO FLUX          1.000E-05
     CRITERION FOR TEMP.    CORRECTION WHEN THERE IS ZERO FLUX         1.000E-03
     CRITERION FOR RESIDUAL HEAT FLUX FOR A LINEAR INCREMENT           1.000E-08
     FIELD CONVERSION RATIO                                             1.00    
     CRITERION FOR ZERO HEAT FLUX REL. TO TIME AVRG. MAX. HEAT FLUX    1.000E-05

     VOLUMETRIC STRAIN COMPATIBILITY TOLERANCE FOR HYBRID SOLIDS       1.000E-05
     AXIAL STRAIN COMPATIBILITY TOLERANCE FOR HYBRID BEAMS             1.000E-05
     TRANS. SHEAR STRAIN COMPATIBILITY TOLERANCE FOR HYBRID BEAMS      1.000E-05
     SOFT CONTACT CONSTRAINT COMPATIBILITY TOLERANCE FOR P>P0          5.000E-03
     SOFT CONTACT CONSTRAINT COMPATIBILITY TOLERANCE FOR P=0.0         0.100    
     CONTACT FORCE ERROR TOLERANCE FOR CONVERT SDI=YES                 1.00    
     DISPLACEMENT COMPATIBILITY TOLERANCE FOR DCOUP ELEMENTS           1.000E-05
     ROTATION COMPATIBILITY TOLERANCE FOR DCOUP ELEMENTS               1.000E-05

 EQUILIBRIUM WILL BE CHECKED FOR SEVERE DISCONTINUITY ITERATIONS

 ITERATION CONTROL PARAMETERS:
     FIRST EQUILIBRIUM ITERATION FOR CONSECUTIVE DIVERGENCE CHECK              4
     EQUILIBRIUM ITERATION AFTER WHICH ALTERNATE RESIDUAL IS USED              9
     MAXIMUM EQUILIBRIUM ITERATIONS ALLOWED                                   16
     MAXIMUM ITERATIONS FOR SEVERE DISCONTINUITIES                            12
     GLOBAL STABILIZATION CONTROL IS NOT USED

          PRINT OF INCREMENT NUMBER, TIME, ETC., EVERY    1  INCREMENTS

     THE MAXIMUM NUMBER OF INCREMENTS IN THIS STEP IS                 1000000

          LARGE DISPLACEMENT THEORY WILL BE USED

          UNSYMMETRIC MATRIX STORAGE AND SOLUTION WILL BE USED

     LINEAR EXTRAPOLATION WILL BE USED

     CHARACTERISTIC ELEMENT LENGTH     2.031E-04

     DETAILS REGARDING ACTUAL SOLUTION WAVEFRONT REQUESTED

     DETAILED OUTPUT OF DIAGNOSTICS TO DATABASE REQUESTED

     PRINT OF INCREMENT NUMBER, TIME, ETC., TO THE MESSAGE FILE EVERY     1  INCREMENTS

     ELEMENT OPERATIONS WILL BE CARRIED OUT IN PARALLEL USING   8 THREADS ON 1 DOMAIN

     PARALLEL CONTACT TRACKING ENABLED


     COLLECTING MODEL CONSTRAINT INFORMATION FOR OVERCONSTRAINT CHECKS

     COLLECTING STEP CONSTRAINT INFORMATION FOR OVERCONSTRAINT CHECKS


  INCREMENT     1 STARTS. ATTEMPT NUMBER  1, TIME INCREMENT   720.    
 
     INITIAL ELEMENT LOAD BALANCE
            DOMAIN    1     THREAD    NUMBER OF ELEMENTS
                              1            8160
                              2            8288
                              3            8438
                              4            8432
                              5            8792
                              6            8288
                              7            8440
                              8            8448
 
	UNSYMMETRIC NEW DIRECT SPARSE SOLVER RUNNING ON
 	1 HOST x 1 MPI RANK PER HOST x 8 THREADS PER RANK
        NUMBER OF EQUATIONS:  209685
        NUMBER OF RHS:        1
        NUMBER OF FLOPS:      4.960e+11
        SOLVER ELAPSED TIME:  2.7s

               CONVERGENCE CHECKS FOR EQUILIBRIUM ITERATION     1


 AVERAGE FORCE                       0.00       TIME AVG. FORCE       1.000E-02
 ALL FORCE     RESIDUALS ARE ZERO
 ALL DISP.    INCREMENTS ARE ZERO
 ALL CORRECTION TO DISP.    ARE ZERO
          THERE IS ZERO FORCE     EVERYWHERE

 AVERAGE HEAT FLUX                   197.       TIME AVG. HEAT FLUX    197.    
 LARGEST RESIDUAL HEAT FLUX         1.210E-10   AT NODE      39984   DOF 11
   INSTANCE: NDBR2P5                                                                         
 LARGEST INCREMENT OF TEMP.          8.72       AT NODE          1   DOF 11
   INSTANCE: NDBR2P5                                                                         
 LARGEST CORRECTION TO TEMP.         8.72       AT NODE          1   DOF 11
   INSTANCE: NDBR2P5                                                                         
          THE HEAT FLUX EQUILIBRIUM RESPONSE WAS LINEAR IN THIS INCREMENT

 ITERATION SUMMARY FOR THE INCREMENT:   1 TOTAL ITERATIONS, OF WHICH
   0 ARE SEVERE DISCONTINUITY ITERATIONS AND  1 ARE EQUILIBRIUM ITERATIONS.

 TIME INCREMENT COMPLETED   720.    ,  FRACTION OF STEP COMPLETED  0.100    
 STEP TIME COMPLETED        720.    ,  TOTAL TIME COMPLETED         720.    


  INCREMENT     2 STARTS. ATTEMPT NUMBER  1, TIME INCREMENT   720.    
 
	UNSYMMETRIC NEW DIRECT SPARSE SOLVER RUNNING ON
 	1 HOST x 1 MPI RANK PER HOST x 8 THREADS PER RANK
        NUMBER OF EQUATIONS:  209685
        NUMBER OF RHS:        1
        NUMBER OF FLOPS:      4.960e+11
        SOLVER ELAPSED TIME:  2.5s

               CONVERGENCE CHECKS FOR EQUILIBRIUM ITERATION     1


 AVERAGE FORCE                       0.00       TIME AVG. FORCE       1.000E-02
 ALL FORCE     RESIDUALS ARE ZERO
 ALL DISP.    INCREMENTS ARE ZERO
 ALL CORRECTION TO DISP.    ARE ZERO
          THERE IS ZERO FORCE     EVERYWHERE

 AVERAGE HEAT FLUX                   119.       TIME AVG. HEAT FLUX    158.    
 LARGEST RESIDUAL HEAT FLUX         1.000E-10   AT NODE      37499   DOF 11
   INSTANCE: NDBR2P5                                                                         
 LARGEST INCREMENT OF TEMP.          3.45       AT NODE      41789   DOF 11
   INSTANCE: NDBR2P5                                                                         
 LARGEST CORRECTION TO TEMP.        -8.72       AT NODE          1   DOF 11
   INSTANCE: NDBR2P5                                                                         
          THE HEAT FLUX EQUILIBRIUM RESPONSE WAS LINEAR IN THIS INCREMENT

 ITERATION SUMMARY FOR THE INCREMENT:   1 TOTAL ITERATIONS, OF WHICH
   0 ARE SEVERE DISCONTINUITY ITERATIONS AND  1 ARE EQUILIBRIUM ITERATIONS.

 TIME INCREMENT COMPLETED   720.    ,  FRACTION OF STEP COMPLETED  0.200    
 STEP TIME COMPLETED       1.440E+03,  TOTAL TIME COMPLETED        1.440E+03


  INCREMENT     3 STARTS. ATTEMPT NUMBER  1, TIME INCREMENT   720.    
 
	UNSYMMETRIC NEW DIRECT SPARSE SOLVER RUNNING ON
 	1 HOST x 1 MPI RANK PER HOST x 8 THREADS PER RANK
        NUMBER OF EQUATIONS:  209685
        NUMBER OF RHS:        1
        NUMBER OF FLOPS:      4.960e+11
        SOLVER ELAPSED TIME:  2.5s

               CONVERGENCE CHECKS FOR EQUILIBRIUM ITERATION     1


 AVERAGE FORCE                       0.00       TIME AVG. FORCE       1.000E-02
 ALL FORCE     RESIDUALS ARE ZERO
 ALL DISP.    INCREMENTS ARE ZERO
 ALL CORRECTION TO DISP.    ARE ZERO
          THERE IS ZERO FORCE     EVERYWHERE

 AVERAGE HEAT FLUX                   36.1       TIME AVG. HEAT FLUX    117.    
 LARGEST RESIDUAL HEAT FLUX         5.048E-11   AT NODE      38813   DOF 11
   INSTANCE: NDBR2P5                                                                         
 LARGEST INCREMENT OF TEMP.         0.999       AT NODE      41789   DOF 11
   INSTANCE: NDBR2P5                                                                         
 LARGEST CORRECTION TO TEMP.        -2.45       AT NODE      41784   DOF 11
   INSTANCE: NDBR2P5                                                                         
          THE HEAT FLUX EQUILIBRIUM RESPONSE WAS LINEAR IN THIS INCREMENT

 ITERATION SUMMARY FOR THE INCREMENT:   1 TOTAL ITERATIONS, OF WHICH
   0 ARE SEVERE DISCONTINUITY ITERATIONS AND  1 ARE EQUILIBRIUM ITERATIONS.

 TIME INCREMENT COMPLETED   720.    ,  FRACTION OF STEP COMPLETED  0.300    
 STEP TIME COMPLETED       2.160E+03,  TOTAL TIME COMPLETED        2.160E+03


  INCREMENT     4 STARTS. ATTEMPT NUMBER  1, TIME INCREMENT   720.    
 
	UNSYMMETRIC NEW DIRECT SPARSE SOLVER RUNNING ON
 	1 HOST x 1 MPI RANK PER HOST x 8 THREADS PER RANK
        NUMBER OF EQUATIONS:  209685
        NUMBER OF RHS:        1
        NUMBER OF FLOPS:      4.960e+11
        SOLVER ELAPSED TIME:  2.5s

               CONVERGENCE CHECKS FOR EQUILIBRIUM ITERATION     1


 AVERAGE FORCE                       0.00       TIME AVG. FORCE       1.000E-02
 ALL FORCE     RESIDUALS ARE ZERO
 ALL DISP.    INCREMENTS ARE ZERO
 ALL CORRECTION TO DISP.    ARE ZERO
          THERE IS ZERO FORCE     EVERYWHERE

 AVERAGE HEAT FLUX                   5.06       TIME AVG. HEAT FLUX    89.4    
 LARGEST RESIDUAL HEAT FLUX        -4.115E-11   AT NODE      38870   DOF 11
   INSTANCE: NDBR2P5                                                                         
 LARGEST INCREMENT OF TEMP.         0.289       AT NODE      41789   DOF 11
   INSTANCE: NDBR2P5                                                                         
 LARGEST CORRECTION TO TEMP.       -0.710       AT NODE      41789   DOF 11
   INSTANCE: NDBR2P5                                                                         
          THE HEAT FLUX EQUILIBRIUM RESPONSE WAS LINEAR IN THIS INCREMENT

 ITERATION SUMMARY FOR THE INCREMENT:   1 TOTAL ITERATIONS, OF WHICH
   0 ARE SEVERE DISCONTINUITY ITERATIONS AND  1 ARE EQUILIBRIUM ITERATIONS.

 TIME INCREMENT COMPLETED   720.    ,  FRACTION OF STEP COMPLETED  0.400    
 STEP TIME COMPLETED       2.880E+03,  TOTAL TIME COMPLETED        2.880E+03


  INCREMENT     5 STARTS. ATTEMPT NUMBER  1, TIME INCREMENT   720.    
 
	UNSYMMETRIC NEW DIRECT SPARSE SOLVER RUNNING ON
 	1 HOST x 1 MPI RANK PER HOST x 8 THREADS PER RANK
        NUMBER OF EQUATIONS:  209685
        NUMBER OF RHS:        1
        NUMBER OF FLOPS:      4.960e+11
        SOLVER ELAPSED TIME:  2.5s

               CONVERGENCE CHECKS FOR EQUILIBRIUM ITERATION     1


 AVERAGE FORCE                       0.00       TIME AVG. FORCE       1.000E-02
 ALL FORCE     RESIDUALS ARE ZERO
 ALL DISP.    INCREMENTS ARE ZERO
 ALL CORRECTION TO DISP.    ARE ZERO
          THERE IS ZERO FORCE     EVERYWHERE

 AVERAGE HEAT FLUX                   1.53       TIME AVG. HEAT FLUX    71.8    
 LARGEST RESIDUAL HEAT FLUX         3.924E-11   AT NODE      41607   DOF 11
   INSTANCE: NDBR2P5                                                                         
 LARGEST INCREMENT OF TEMP.         8.376E-02   AT NODE      41789   DOF 11
   INSTANCE: NDBR2P5                                                                         
 LARGEST CORRECTION TO TEMP.       -0.205       AT NODE      41789   DOF 11
   INSTANCE: NDBR2P5                                                                         
          THE HEAT FLUX EQUILIBRIUM RESPONSE WAS LINEAR IN THIS INCREMENT

 ITERATION SUMMARY FOR THE INCREMENT:   1 TOTAL ITERATIONS, OF WHICH
   0 ARE SEVERE DISCONTINUITY ITERATIONS AND  1 ARE EQUILIBRIUM ITERATIONS.

 TIME INCREMENT COMPLETED   720.    ,  FRACTION OF STEP COMPLETED  0.500    
 STEP TIME COMPLETED       3.600E+03,  TOTAL TIME COMPLETED        3.600E+03


  INCREMENT     6 STARTS. ATTEMPT NUMBER  1, TIME INCREMENT   720.    
 
	UNSYMMETRIC NEW DIRECT SPARSE SOLVER RUNNING ON
 	1 HOST x 1 MPI RANK PER HOST x 8 THREADS PER RANK
        NUMBER OF EQUATIONS:  209685
        NUMBER OF RHS:        1
        NUMBER OF FLOPS:      4.960e+11
        SOLVER ELAPSED TIME:  2.4s

               CONVERGENCE CHECKS FOR EQUILIBRIUM ITERATION     1


 AVERAGE FORCE                       0.00       TIME AVG. FORCE       1.000E-02
 ALL FORCE     RESIDUALS ARE ZERO
 ALL DISP.    INCREMENTS ARE ZERO
 ALL CORRECTION TO DISP.    ARE ZERO
          THERE IS ZERO FORCE     EVERYWHERE

 AVERAGE HEAT FLUX                  0.461       TIME AVG. HEAT FLUX    59.9    
 LARGEST RESIDUAL HEAT FLUX        -3.445E-11   AT NODE      40025   DOF 11
   INSTANCE: NDBR2P5                                                                         
 LARGEST INCREMENT OF TEMP.         2.439E-02   AT NODE      41789   DOF 11
   INSTANCE: NDBR2P5                                                                         
 LARGEST CORRECTION TO TEMP.       -5.937E-02   AT NODE      41789   DOF 11
   INSTANCE: NDBR2P5                                                                         
          THE HEAT FLUX EQUILIBRIUM RESPONSE WAS LINEAR IN THIS INCREMENT

 ITERATION SUMMARY FOR THE INCREMENT:   1 TOTAL ITERATIONS, OF WHICH
   0 ARE SEVERE DISCONTINUITY ITERATIONS AND  1 ARE EQUILIBRIUM ITERATIONS.

 TIME INCREMENT COMPLETED   720.    ,  FRACTION OF STEP COMPLETED  0.600    
 STEP TIME COMPLETED       4.320E+03,  TOTAL TIME COMPLETED        4.320E+03


  INCREMENT     7 STARTS. ATTEMPT NUMBER  1, TIME INCREMENT   720.    
 
	UNSYMMETRIC NEW DIRECT SPARSE SOLVER RUNNING ON
 	1 HOST x 1 MPI RANK PER HOST x 8 THREADS PER RANK
        NUMBER OF EQUATIONS:  209685
        NUMBER OF RHS:        1
        NUMBER OF FLOPS:      4.960e+11
        SOLVER ELAPSED TIME:  2.6s

               CONVERGENCE CHECKS FOR EQUILIBRIUM ITERATION     1


 AVERAGE FORCE                       0.00       TIME AVG. FORCE       1.000E-02
 ALL FORCE     RESIDUALS ARE ZERO
 ALL DISP.    INCREMENTS ARE ZERO
 ALL CORRECTION TO DISP.    ARE ZERO
          THERE IS ZERO FORCE     EVERYWHERE

 AVERAGE HEAT FLUX                  0.139       TIME AVG. HEAT FLUX    51.4    
 LARGEST RESIDUAL HEAT FLUX         3.956E-11   AT NODE      41674   DOF 11
   INSTANCE: NDBR2P5                                                                         
 LARGEST INCREMENT OF TEMP.         7.254E-03   AT NODE      37780   DOF 11
   INSTANCE: NDBR2P5                                                                         
 LARGEST CORRECTION TO TEMP.       -1.726E-02   AT NODE      41789   DOF 11
   INSTANCE: NDBR2P5                                                                         
          THE HEAT FLUX EQUILIBRIUM RESPONSE WAS LINEAR IN THIS INCREMENT

 ITERATION SUMMARY FOR THE INCREMENT:   1 TOTAL ITERATIONS, OF WHICH
   0 ARE SEVERE DISCONTINUITY ITERATIONS AND  1 ARE EQUILIBRIUM ITERATIONS.

 TIME INCREMENT COMPLETED   720.    ,  FRACTION OF STEP COMPLETED  0.700    
 STEP TIME COMPLETED       5.040E+03,  TOTAL TIME COMPLETED        5.040E+03


  INCREMENT     8 STARTS. ATTEMPT NUMBER  1, TIME INCREMENT   720.    
 
	UNSYMMETRIC NEW DIRECT SPARSE SOLVER RUNNING ON
 	1 HOST x 1 MPI RANK PER HOST x 8 THREADS PER RANK
        NUMBER OF EQUATIONS:  209685
        NUMBER OF RHS:        1
        NUMBER OF FLOPS:      4.960e+11
        SOLVER ELAPSED TIME:  2.6s

               CONVERGENCE CHECKS FOR EQUILIBRIUM ITERATION     1


 AVERAGE FORCE                       0.00       TIME AVG. FORCE       1.000E-02
 ALL FORCE     RESIDUALS ARE ZERO
 ALL DISP.    INCREMENTS ARE ZERO
 ALL CORRECTION TO DISP.    ARE ZERO
          THERE IS ZERO FORCE     EVERYWHERE

 AVERAGE HEAT FLUX                  4.207E-02   TIME AVG. HEAT FLUX    44.9    
 LARGEST RESIDUAL HEAT FLUX        -3.996E-11   AT NODE      39146   DOF 11
   INSTANCE: NDBR2P5                                                                         
 LARGEST INCREMENT OF TEMP.         2.250E-03   AT NODE      37780   DOF 11
   INSTANCE: NDBR2P5                                                                         
 LARGEST CORRECTION TO TEMP.       -5.038E-03   AT NODE      41789   DOF 11
   INSTANCE: NDBR2P5                                                                         
          THE HEAT FLUX EQUILIBRIUM RESPONSE WAS LINEAR IN THIS INCREMENT

 ITERATION SUMMARY FOR THE INCREMENT:   1 TOTAL ITERATIONS, OF WHICH
   0 ARE SEVERE DISCONTINUITY ITERATIONS AND  1 ARE EQUILIBRIUM ITERATIONS.

 TIME INCREMENT COMPLETED   720.    ,  FRACTION OF STEP COMPLETED  0.800    
 STEP TIME COMPLETED       5.760E+03,  TOTAL TIME COMPLETED        5.760E+03


  INCREMENT     9 STARTS. ATTEMPT NUMBER  1, TIME INCREMENT   720.    
 
	UNSYMMETRIC NEW DIRECT SPARSE SOLVER RUNNING ON
 	1 HOST x 1 MPI RANK PER HOST x 8 THREADS PER RANK
        NUMBER OF EQUATIONS:  209685
        NUMBER OF RHS:        1
        NUMBER OF FLOPS:      4.960e+11
        SOLVER ELAPSED TIME:  2.5s

               CONVERGENCE CHECKS FOR EQUILIBRIUM ITERATION     1


 AVERAGE FORCE                       0.00       TIME AVG. FORCE       1.000E-02
 ALL FORCE     RESIDUALS ARE ZERO
 ALL DISP.    INCREMENTS ARE ZERO
 ALL CORRECTION TO DISP.    ARE ZERO
          THERE IS ZERO FORCE     EVERYWHERE

 AVERAGE HEAT FLUX                  1.271E-02   TIME AVG. HEAT FLUX    40.0    
 LARGEST RESIDUAL HEAT FLUX        -4.646E-11   AT NODE      39182   DOF 11
   INSTANCE: NDBR2P5                                                                         
 LARGEST INCREMENT OF TEMP.         7.010E-04   AT NODE        860   DOF 11
   INSTANCE: NDBR2P5                                                                         
 LARGEST CORRECTION TO TEMP.       -1.554E-03   AT NODE      37780   DOF 11
   INSTANCE: NDBR2P5                                                                         
          THE HEAT FLUX EQUILIBRIUM RESPONSE WAS LINEAR IN THIS INCREMENT

 ITERATION SUMMARY FOR THE INCREMENT:   1 TOTAL ITERATIONS, OF WHICH
   0 ARE SEVERE DISCONTINUITY ITERATIONS AND  1 ARE EQUILIBRIUM ITERATIONS.

 TIME INCREMENT COMPLETED   720.    ,  FRACTION OF STEP COMPLETED  0.900    
 STEP TIME COMPLETED       6.480E+03,  TOTAL TIME COMPLETED        6.480E+03


  INCREMENT    10 STARTS. ATTEMPT NUMBER  1, TIME INCREMENT   720.    
 
	UNSYMMETRIC NEW DIRECT SPARSE SOLVER RUNNING ON
 	1 HOST x 1 MPI RANK PER HOST x 8 THREADS PER RANK
        NUMBER OF EQUATIONS:  209685
        NUMBER OF RHS:        1
        NUMBER OF FLOPS:      4.960e+11
        SOLVER ELAPSED TIME:  2.6s

               CONVERGENCE CHECKS FOR EQUILIBRIUM ITERATION     1


 AVERAGE FORCE                       0.00       TIME AVG. FORCE       1.000E-02
 ALL FORCE     RESIDUALS ARE ZERO
 ALL DISP.    INCREMENTS ARE ZERO
 ALL CORRECTION TO DISP.    ARE ZERO
          THERE IS ZERO FORCE     EVERYWHERE

 AVERAGE HEAT FLUX                  3.844E-03   TIME AVG. HEAT FLUX    36.0    
 LARGEST RESIDUAL HEAT FLUX         3.670E-11   AT NODE      41574   DOF 11
   INSTANCE: NDBR2P5                                                                         
 LARGEST INCREMENT OF TEMP.         2.191E-04   AT NODE       4158   DOF 11
   INSTANCE: NDBR2P5                                                                         
 LARGEST CORRECTION TO TEMP.       -4.820E-04   AT NODE      37602   DOF 11
   INSTANCE: NDBR2P5                                                                         
          THE HEAT FLUX EQUILIBRIUM RESPONSE WAS LINEAR IN THIS INCREMENT

 ITERATION SUMMARY FOR THE INCREMENT:   1 TOTAL ITERATIONS, OF WHICH
   0 ARE SEVERE DISCONTINUITY ITERATIONS AND  1 ARE EQUILIBRIUM ITERATIONS.

 TIME INCREMENT COMPLETED   720.    ,  FRACTION OF STEP COMPLETED   1.00    
 STEP TIME COMPLETED       7.200E+03,  TOTAL TIME COMPLETED        7.200E+03
1

   Abaqus 2023.HF4                                  Date 22-Sep-2024   Time 20:37:35
   For use by AALTO UNIVERSITY under license from Dassault Systemes or its subsidiary.

                                                                                 
                                                                                 
 STEP    2     INCREMENT     1     STEP TIME    0.00    


                        S T E P       2     C O U P L E D - T E M P E R A T U R E - D I S P L A C E M E N T   A N A L Y S I S


                                                                                          

     AUTOMATIC TIME CONTROL WITH -
          A SUGGESTED INITIAL TIME INCREMENT OF                 4.91    
          AND A TOTAL TIME PERIOD OF                            491.    
          THE MINIMUM TIME INCREMENT ALLOWED IS                1.000E-07
          THE MAXIMUM TIME INCREMENT ALLOWED IS                 4.91    

          CREEP AND SWELLING EFFECTS ARE OMITTED IN THIS STEP

     THE SIZE OF THE TIME INCREMENT IS CONTROLLED BY -
          THE TEMPERATURE CHANGE PER INCREMENT NOT EXCEEDING           1.000E+03
          THE RATE DEPENDENCY WILL BE CONSIDERED IN THIS STEP

          CREEP AND SWELLING EFFECTS WILL BE IGNORED.

 CONVERGENCE TOLERANCE PARAMETERS FOR FORCE    
     CRITERION FOR RESIDUAL FORCE     FOR A NONLINEAR PROBLEM          5.000E-03
     CRITERION FOR DISP.    CORRECTION IN A NONLINEAR PROBLEM          1.000E-02
     INIT. VALUE OF TIME AVG. FORCE     IS TIME AVG. FORCE     IN PREVIOUS STEP
     AVERAGE FORCE     IS TIME AVERAGE FORCE    
     ALTERNATE CRIT. FOR RESIDUAL FORCE     FOR A NONLINEAR PROBLEM    2.000E-02
     CRITERION FOR ZERO FORCE     RELATIVE TO TIME AVRG. FORCE         1.000E-05
     CRITERION FOR RESIDUAL FORCE     WHEN THERE IS ZERO FLUX          1.000E-05
     CRITERION FOR DISP.    CORRECTION WHEN THERE IS ZERO FLUX         1.000E-03
     CRITERION FOR RESIDUAL FORCE     FOR A LINEAR INCREMENT           1.000E-08
     FIELD CONVERSION RATIO                                             1.00    
     CRITERION FOR ZERO FORCE     REL. TO TIME AVRG. MAX. FORCE        1.000E-05
     CRITERION FOR ZERO DISP.    RELATIVE TO CHARACTERISTIC LENGTH     1.000E-08

 CONVERGENCE TOLERANCE PARAMETERS FOR HEAT FLUX
     CRITERION FOR RESIDUAL HEAT FLUX FOR A NONLINEAR PROBLEM          5.000E-03
     CRITERION FOR TEMP.    CORRECTION IN A NONLINEAR PROBLEM          1.000E-02
     INIT. VALUE OF TIME AVG. HEAT FLUX IS TIME AVG. HEAT FLUX IN PREVIOUS STEP
     AVERAGE HEAT FLUX IS TIME AVERAGE HEAT FLUX
     ALTERNATE CRIT. FOR RESIDUAL HEAT FLUX FOR A NONLINEAR PROBLEM    2.000E-02
     CRITERION FOR ZERO HEAT FLUX RELATIVE TO TIME AVRG. HEAT FLUX     1.000E-05
     CRITERION FOR RESIDUAL HEAT FLUX WHEN THERE IS ZERO FLUX          1.000E-05
     CRITERION FOR TEMP.    CORRECTION WHEN THERE IS ZERO FLUX         1.000E-03
     CRITERION FOR RESIDUAL HEAT FLUX FOR A LINEAR INCREMENT           1.000E-08
     FIELD CONVERSION RATIO                                             1.00    
     CRITERION FOR ZERO HEAT FLUX REL. TO TIME AVRG. MAX. HEAT FLUX    1.000E-05

     VOLUMETRIC STRAIN COMPATIBILITY TOLERANCE FOR HYBRID SOLIDS       1.000E-05
     AXIAL STRAIN COMPATIBILITY TOLERANCE FOR HYBRID BEAMS             1.000E-05
     TRANS. SHEAR STRAIN COMPATIBILITY TOLERANCE FOR HYBRID BEAMS      1.000E-05
     SOFT CONTACT CONSTRAINT COMPATIBILITY TOLERANCE FOR P>P0          5.000E-03
     SOFT CONTACT CONSTRAINT COMPATIBILITY TOLERANCE FOR P=0.0         0.100    
     CONTACT FORCE ERROR TOLERANCE FOR CONVERT SDI=YES                 1.00    
     DISPLACEMENT COMPATIBILITY TOLERANCE FOR DCOUP ELEMENTS           1.000E-05
     ROTATION COMPATIBILITY TOLERANCE FOR DCOUP ELEMENTS               1.000E-05

 EQUILIBRIUM WILL BE CHECKED FOR SEVERE DISCONTINUITY ITERATIONS

 TIME INCREMENTATION CONTROL PARAMETERS:
     FIRST EQUILIBRIUM ITERATION FOR CONSECUTIVE DIVERGENCE CHECK              4
     EQUILIBRIUM ITERATION AT WHICH LOG. CONVERGENCE RATE CHECK BEGINS         8
     EQUILIBRIUM ITERATION AFTER WHICH ALTERNATE RESIDUAL IS USED              9
     MAXIMUM EQUILIBRIUM ITERATIONS ALLOWED                                   16
     EQUILIBRIUM ITERATION COUNT FOR CUT-BACK IN NEXT INCREMENT               10
     MAXIMUM EQUILIB. ITERS IN TWO INCREMENTS FOR TIME INCREMENT INCREASE      4
     MAXIMUM ITERATIONS FOR SEVERE DISCONTINUITIES                            50
     MAXIMUM ATTEMPTS ALLOWED IN AN INCREMENT                                  5
     MAXIMUM DISCON. ITERS IN TWO INCREMENTS FOR TIME INCREMENT INCREASE      50
     MAXIMUM CONTACT AUGMENTATIONS FOR *SURFACE BEHAVIOR,AUGMENTED LAGRANGE   50
     CONSECUTIVE INCS MEETING TIME INTEG. TOL. FOR TIME INC. INCREASE          3
     CUT-BACK FACTOR AFTER DIVERGENCE                                 0.2500    
     CUT-BACK FACTOR FOR TOO SLOW CONVERGENCE                         0.5000    
     CUT-BACK FACTOR AFTER TOO MANY EQUILIBRIUM ITERATIONS            0.7500    
     CUT-BACK FACTOR AFTER TOO MANY SEVERE DISCONTINUITY ITERATIONS   0.2500    
     CUT-BACK FACTOR AFTER PROBLEMS IN ELEMENT ASSEMBLY               0.2500    
     INCREASE FACTOR AFTER TWO INCREMENTS THAT CONVERGE QUICKLY        1.500    
     MAX. TIME INCREMENT INCREASE FACTOR ALLOWED                       1.500    
     MAX. TIME INCREMENT INCREASE FACTOR ALLOWED (DYNAMICS)            1.250    
     MAX. TIME INCREMENT INCREASE FACTOR ALLOWED (DIFFUSION)           2.000    
     MINIMUM TIME INCREMENT RATIO FOR EXTRAPOLATION TO OCCUR          0.1000    
     CUT-BACK FACTOR WHEN TIME INTEGRATION ACCURACY TOL. EXCEEDED     0.8500    
     MAX. RATIO OF TIME INTEG. MEASURE TO TOL. FOR TIME INC. INCREASE 0.7500    
     INCREASE FACTOR FOR TIME INCREMENT WHEN POSSIBLE                 0.8000    
     MIN. TIME INC. INCREASE FACTOR IN LINEAR TRANSIENT PROBLEMS      0.9500    
     MAX. RATIO OF TIME INCREMENT TO STABILITY LIMIT                   1.000    
     FRACTION OF STABILITY LIMIT FOR NEW TIME INCREMENT               0.9500    
     TIME INCREMENT INCREASE FACTOR BEFORE A TIME POINT                1.000    
     GLOBAL STABILIZATION CONTROL IS NOT USED

          PRINT OF INCREMENT NUMBER, TIME, ETC., EVERY    1  INCREMENTS

     THE MAXIMUM NUMBER OF INCREMENTS IN THIS STEP IS                 1000000

          LARGE DISPLACEMENT THEORY WILL BE USED

          UNSYMMETRIC MATRIX STORAGE AND SOLUTION WILL BE USED

     LINEAR EXTRAPOLATION WILL BE USED

     CHARACTERISTIC ELEMENT LENGTH     2.031E-04

     DETAILS REGARDING ACTUAL SOLUTION WAVEFRONT REQUESTED

     DETAILED OUTPUT OF DIAGNOSTICS TO DATABASE REQUESTED

     PRINT OF INCREMENT NUMBER, TIME, ETC., TO THE MESSAGE FILE EVERY     1  INCREMENTS

     ELEMENT OPERATIONS WILL BE CARRIED OUT IN PARALLEL USING   8 THREADS ON 1 DOMAIN

     COLLECTING STEP CONSTRAINT INFORMATION FOR OVERCONSTRAINT CHECKS


  INCREMENT     1 STARTS. ATTEMPT NUMBER  1, TIME INCREMENT   4.91    
 
     INITIAL ELEMENT LOAD BALANCE
            DOMAIN    1     THREAD    NUMBER OF ELEMENTS
                              1            8536
                              2            8656
                              3            8296
                              4            8272
                              5            8320
                              6            8336
                              7            8568
                              8            8302
 
	UNSYMMETRIC NEW DIRECT SPARSE SOLVER RUNNING ON
 	1 HOST x 1 MPI RANK PER HOST x 8 THREADS PER RANK
        NUMBER OF EQUATIONS:  209685
        NUMBER OF RHS:        1
        NUMBER OF FLOPS:      4.960e+11
        SOLVER ELAPSED TIME:  2.5s

               CONVERGENCE CHECKS FOR EQUILIBRIUM ITERATION     1


 AVERAGE FORCE                      2.700E-02   TIME AVG. FORCE       2.700E-02
 LARGEST SCALED RESIDUAL FORCE      1.039E-11   AT NODE      41638   DOF  2
   INSTANCE: NDBR2P5                                                                         
  CORRESPONDING RESIDUAL FORCE      1.039E-11
 LARGEST INCREMENT OF DISP.         1.228E-05   AT NODE      40148   DOF  2
   INSTANCE: NDBR2P5                                                                         
 LARGEST CORRECTION TO DISP.        1.228E-05   AT NODE      40148   DOF  2
   INSTANCE: NDBR2P5                                                                         
          THE FORCE     EQUILIBRIUM RESPONSE WAS LINEAR IN THIS INCREMENT

 AVERAGE HEAT FLUX                  3.784E-03   TIME AVG. HEAT FLUX   3.784E-03
 LARGEST RESIDUAL HEAT FLUX        -3.069E-11   AT NODE      38863   DOF 11
   INSTANCE: NDBR2P5                                                                         
 LARGEST INCREMENT OF TEMP.         1.472E-06   AT NODE       4158   DOF 11
   INSTANCE: NDBR2P5                                                                         
 LARGEST CORRECTION TO TEMP.        1.472E-06   AT NODE       4158   DOF 11
   INSTANCE: NDBR2P5                                                                         
          THE HEAT FLUX EQUILIBRIUM RESPONSE WAS LINEAR IN THIS INCREMENT

 MAXIMUM NON-PRESCRIBED INCREMENT IN TEMPERATURE IS   1.472E-06

 ITERATION SUMMARY FOR THE INCREMENT:   1 TOTAL ITERATIONS, OF WHICH
   0 ARE SEVERE DISCONTINUITY ITERATIONS AND  1 ARE EQUILIBRIUM ITERATIONS.

 TIME INCREMENT COMPLETED   4.91    ,  FRACTION OF STEP COMPLETED  1.000E-02
 STEP TIME COMPLETED        4.91    ,  TOTAL TIME COMPLETED        7.205E+03


  INCREMENT     2 STARTS. ATTEMPT NUMBER  1, TIME INCREMENT   4.91    
 
	UNSYMMETRIC NEW DIRECT SPARSE SOLVER RUNNING ON
 	1 HOST x 1 MPI RANK PER HOST x 8 THREADS PER RANK
        NUMBER OF EQUATIONS:  209685
        NUMBER OF RHS:        1
        NUMBER OF FLOPS:      4.960e+11
        SOLVER ELAPSED TIME:  2.5s

               CONVERGENCE CHECKS FOR EQUILIBRIUM ITERATION     1


 AVERAGE FORCE                      0.125       TIME AVG. FORCE       7.607E-02
 LARGEST SCALED RESIDUAL FORCE      2.348E-12   AT NODE      41604   DOF  2
   INSTANCE: NDBR2P5                                                                         
  CORRESPONDING RESIDUAL FORCE      2.348E-12
 LARGEST INCREMENT OF DISP.         1.228E-05   AT NODE      40148   DOF  2
   INSTANCE: NDBR2P5                                                                         
 LARGEST CORRECTION TO DISP.       -1.188E-17   AT NODE      15966   DOF  1
   INSTANCE: NDBR2P5                                                                         
          THE FORCE     EQUILIBRIUM RESPONSE WAS LINEAR IN THIS INCREMENT

 AVERAGE HEAT FLUX                  3.211E-02   TIME AVG. HEAT FLUX   1.795E-02
 LARGEST RESIDUAL HEAT FLUX         4.347E-07   AT NODE       9349   DOF 12
   INSTANCE: NDBR2P5                                                                         
 LARGEST INCREMENT OF TEMP.        -5.164E-03   AT NODE       5749   DOF 11
   INSTANCE: NDBR2P5                                                                         
 LARGEST CORRECTION TO TEMP.       -5.164E-03   AT NODE       5749   DOF 11
   INSTANCE: NDBR2P5                                                                         
 ESTIMATE OF TEMP.    CORRECTION    1.825E-10
 HEAT FLUX EQUILIB. ACCEPTED BASED ON SMALL RESIDUAL AND ESTIMATED CORRECTION

 MAXIMUM NON-PRESCRIBED INCREMENT IN TEMPERATURE IS  -5.164E-03

 ITERATION SUMMARY FOR THE INCREMENT:   1 TOTAL ITERATIONS, OF WHICH
   0 ARE SEVERE DISCONTINUITY ITERATIONS AND  1 ARE EQUILIBRIUM ITERATIONS.

 TIME INCREMENT COMPLETED   4.91    ,  FRACTION OF STEP COMPLETED  2.000E-02
 STEP TIME COMPLETED        9.82    ,  TOTAL TIME COMPLETED        7.210E+03


  INCREMENT     3 STARTS. ATTEMPT NUMBER  1, TIME INCREMENT   4.91    
 
	UNSYMMETRIC NEW DIRECT SPARSE SOLVER RUNNING ON
 	1 HOST x 1 MPI RANK PER HOST x 8 THREADS PER RANK
        NUMBER OF EQUATIONS:  209685
        NUMBER OF RHS:        1
        NUMBER OF FLOPS:      4.960e+11
        SOLVER ELAPSED TIME:  2.5s

               CONVERGENCE CHECKS FOR EQUILIBRIUM ITERATION     1


 AVERAGE FORCE                      0.188       TIME AVG. FORCE       0.113    
 LARGEST SCALED RESIDUAL FORCE     -2.815E-12   AT NODE      41536   DOF  2
   INSTANCE: NDBR2P5                                                                         
  CORRESPONDING RESIDUAL FORCE     -2.815E-12
 LARGEST INCREMENT OF DISP.         1.228E-05   AT NODE      40148   DOF  2
   INSTANCE: NDBR2P5                                                                         
 LARGEST CORRECTION TO DISP.        8.368E-13   AT NODE       2093   DOF  2
   INSTANCE: NDBR2P5                                                                         
          THE FORCE     EQUILIBRIUM RESPONSE WAS LINEAR IN THIS INCREMENT

 AVERAGE HEAT FLUX                  6.210E-02   TIME AVG. HEAT FLUX   3.266E-02
 LARGEST RESIDUAL HEAT FLUX        -1.395E-06   AT NODE      40839   DOF 12
   INSTANCE: NDBR2P5                                                                         
 LARGEST INCREMENT OF TEMP.        -7.173E-03   AT NODE       5749   DOF 11
   INSTANCE: NDBR2P5                                                                         
 LARGEST CORRECTION TO TEMP.       -2.241E-03   AT NODE      21790   DOF 11
   INSTANCE: NDBR2P5                                                                         
 ESTIMATE OF TEMP.    CORRECTION   -2.645E-10
 HEAT FLUX EQUILIB. ACCEPTED BASED ON SMALL RESIDUAL AND ESTIMATED CORRECTION

 MAXIMUM NON-PRESCRIBED INCREMENT IN TEMPERATURE IS  -7.173E-03

 ITERATION SUMMARY FOR THE INCREMENT:   1 TOTAL ITERATIONS, OF WHICH
   0 ARE SEVERE DISCONTINUITY ITERATIONS AND  1 ARE EQUILIBRIUM ITERATIONS.

 TIME INCREMENT COMPLETED   4.91    ,  FRACTION OF STEP COMPLETED  3.000E-02
 STEP TIME COMPLETED        14.7    ,  TOTAL TIME COMPLETED        7.215E+03


  INCREMENT     4 STARTS. ATTEMPT NUMBER  1, TIME INCREMENT   4.91    
 
	UNSYMMETRIC NEW DIRECT SPARSE SOLVER RUNNING ON
 	1 HOST x 1 MPI RANK PER HOST x 8 THREADS PER RANK
        NUMBER OF EQUATIONS:  209685
        NUMBER OF RHS:        1
        NUMBER OF FLOPS:      4.960e+11
        SOLVER ELAPSED TIME:  2.5s

               CONVERGENCE CHECKS FOR EQUILIBRIUM ITERATION     1


 AVERAGE FORCE                      0.250       TIME AVG. FORCE       0.148    
 LARGEST SCALED RESIDUAL FORCE     -2.367E-12   AT NODE      41564   DOF  2
   INSTANCE: NDBR2P5                                                                         
  CORRESPONDING RESIDUAL FORCE     -2.367E-12
 LARGEST INCREMENT OF DISP.         1.228E-05   AT NODE      40148   DOF  2
   INSTANCE: NDBR2P5                                                                         
 LARGEST CORRECTION TO DISP.        2.791E-12   AT NODE       2093   DOF  2
   INSTANCE: NDBR2P5                                                                         
          THE FORCE     EQUILIBRIUM RESPONSE WAS LINEAR IN THIS INCREMENT

 AVERAGE HEAT FLUX                  9.252E-02   TIME AVG. HEAT FLUX   4.763E-02
 LARGEST RESIDUAL HEAT FLUX        -3.008E-06   AT NODE      40839   DOF 12
   INSTANCE: NDBR2P5                                                                         
 LARGEST INCREMENT OF TEMP.        -8.200E-03   AT NODE      16013   DOF 11
   INSTANCE: NDBR2P5                                                                         
 LARGEST CORRECTION TO TEMP.       -1.097E-03   AT NODE      21790   DOF 11
   INSTANCE: NDBR2P5                                                                         
 ESTIMATE OF TEMP.    CORRECTION   -2.897E-10
 HEAT FLUX EQUILIB. ACCEPTED BASED ON SMALL RESIDUAL AND ESTIMATED CORRECTION

 MAXIMUM NON-PRESCRIBED INCREMENT IN TEMPERATURE IS  -8.200E-03

 ITERATION SUMMARY FOR THE INCREMENT:   1 TOTAL ITERATIONS, OF WHICH
   0 ARE SEVERE DISCONTINUITY ITERATIONS AND  1 ARE EQUILIBRIUM ITERATIONS.

 TIME INCREMENT COMPLETED   4.91    ,  FRACTION OF STEP COMPLETED  4.000E-02
 STEP TIME COMPLETED        19.6    ,  TOTAL TIME COMPLETED        7.220E+03


  INCREMENT     5 STARTS. ATTEMPT NUMBER  1, TIME INCREMENT   4.91    
 
	UNSYMMETRIC NEW DIRECT SPARSE SOLVER RUNNING ON
 	1 HOST x 1 MPI RANK PER HOST x 8 THREADS PER RANK
        NUMBER OF EQUATIONS:  209685
        NUMBER OF RHS:        1
        NUMBER OF FLOPS:      4.960e+11
        SOLVER ELAPSED TIME:  2.4s

               CONVERGENCE CHECKS FOR EQUILIBRIUM ITERATION     1


 AVERAGE FORCE                      0.313       TIME AVG. FORCE       0.181    
 LARGEST SCALED RESIDUAL FORCE      2.989E-12   AT NODE      40773   DOF  2
   INSTANCE: NDBR2P5                                                                         
  CORRESPONDING RESIDUAL FORCE      2.989E-12
 LARGEST INCREMENT OF DISP.         1.228E-05   AT NODE      40148   DOF  2
   INSTANCE: NDBR2P5                                                                         
 LARGEST CORRECTION TO DISP.        4.470E-12   AT NODE       2093   DOF  2
   INSTANCE: NDBR2P5                                                                         
          THE FORCE     EQUILIBRIUM RESPONSE WAS LINEAR IN THIS INCREMENT

 AVERAGE HEAT FLUX                  0.124       TIME AVG. HEAT FLUX   6.280E-02
 LARGEST RESIDUAL HEAT FLUX        -5.139E-06   AT NODE      40839   DOF 12
   INSTANCE: NDBR2P5                                                                         
 LARGEST INCREMENT OF TEMP.        -8.767E-03   AT NODE      16013   DOF 11
   INSTANCE: NDBR2P5                                                                         
 LARGEST CORRECTION TO TEMP.       -5.783E-04   AT NODE      20300   DOF 11
   INSTANCE: NDBR2P5                                                                         
 ESTIMATE OF TEMP.    CORRECTION   -2.701E-10
 HEAT FLUX EQUILIB. ACCEPTED BASED ON SMALL RESIDUAL AND ESTIMATED CORRECTION

 MAXIMUM NON-PRESCRIBED INCREMENT IN TEMPERATURE IS  -8.767E-03

 ITERATION SUMMARY FOR THE INCREMENT:   1 TOTAL ITERATIONS, OF WHICH
   0 ARE SEVERE DISCONTINUITY ITERATIONS AND  1 ARE EQUILIBRIUM ITERATIONS.

 TIME INCREMENT COMPLETED   4.91    ,  FRACTION OF STEP COMPLETED  5.000E-02
 STEP TIME COMPLETED        24.6    ,  TOTAL TIME COMPLETED        7.225E+03


  INCREMENT     6 STARTS. ATTEMPT NUMBER  1, TIME INCREMENT   4.91    
 
	UNSYMMETRIC NEW DIRECT SPARSE SOLVER RUNNING ON
 	1 HOST x 1 MPI RANK PER HOST x 8 THREADS PER RANK
        NUMBER OF EQUATIONS:  209685
        NUMBER OF RHS:        1
        NUMBER OF FLOPS:      4.960e+11
        SOLVER ELAPSED TIME:  2.5s

               CONVERGENCE CHECKS FOR EQUILIBRIUM ITERATION     1


 AVERAGE FORCE                      0.375       TIME AVG. FORCE       0.213    
 LARGEST SCALED RESIDUAL FORCE     -2.984E-12   AT NODE      41742   DOF  2
   INSTANCE: NDBR2P5                                                                         
  CORRESPONDING RESIDUAL FORCE     -2.984E-12
 LARGEST INCREMENT OF DISP.         1.228E-05   AT NODE      40148   DOF  2
   INSTANCE: NDBR2P5                                                                         
 LARGEST CORRECTION TO DISP.        6.158E-12   AT NODE       2093   DOF  2
   INSTANCE: NDBR2P5                                                                         
          THE FORCE     EQUILIBRIUM RESPONSE WAS LINEAR IN THIS INCREMENT

 AVERAGE HEAT FLUX                  0.155       TIME AVG. HEAT FLUX   7.820E-02
 LARGEST RESIDUAL HEAT FLUX        -7.737E-06   AT NODE      40839   DOF 12
   INSTANCE: NDBR2P5                                                                         
 LARGEST INCREMENT OF TEMP.        -9.089E-03   AT NODE      16013   DOF 11
   INSTANCE: NDBR2P5                                                                         
 LARGEST CORRECTION TO TEMP.       -3.300E-04   AT NODE      20300   DOF 11
   INSTANCE: NDBR2P5                                                                         
 ESTIMATE OF TEMP.    CORRECTION   -2.397E-10
 HEAT FLUX EQUILIB. ACCEPTED BASED ON SMALL RESIDUAL AND ESTIMATED CORRECTION

 MAXIMUM NON-PRESCRIBED INCREMENT IN TEMPERATURE IS  -9.089E-03

 ITERATION SUMMARY FOR THE INCREMENT:   1 TOTAL ITERATIONS, OF WHICH
   0 ARE SEVERE DISCONTINUITY ITERATIONS AND  1 ARE EQUILIBRIUM ITERATIONS.

 TIME INCREMENT COMPLETED   4.91    ,  FRACTION OF STEP COMPLETED  6.000E-02
 STEP TIME COMPLETED        29.5    ,  TOTAL TIME COMPLETED        7.229E+03


  INCREMENT     7 STARTS. ATTEMPT NUMBER  1, TIME INCREMENT   4.91    
 
	UNSYMMETRIC NEW DIRECT SPARSE SOLVER RUNNING ON
 	1 HOST x 1 MPI RANK PER HOST x 8 THREADS PER RANK
        NUMBER OF EQUATIONS:  209685
        NUMBER OF RHS:        1
        NUMBER OF FLOPS:      4.960e+11
        SOLVER ELAPSED TIME:  2.4s

               CONVERGENCE CHECKS FOR EQUILIBRIUM ITERATION     1


 AVERAGE FORCE                      0.438       TIME AVG. FORCE       0.245    
 LARGEST SCALED RESIDUAL FORCE     -3.705E-12   AT NODE      41576   DOF  2
   INSTANCE: NDBR2P5                                                                         
  CORRESPONDING RESIDUAL FORCE     -3.705E-12
 LARGEST INCREMENT OF DISP.         1.228E-05   AT NODE      40148   DOF  2
   INSTANCE: NDBR2P5                                                                         
 LARGEST CORRECTION TO DISP.        7.857E-12   AT NODE       2093   DOF  2
   INSTANCE: NDBR2P5                                                                         
          THE FORCE     EQUILIBRIUM RESPONSE WAS LINEAR IN THIS INCREMENT

 AVERAGE HEAT FLUX                  0.187       TIME AVG. HEAT FLUX   9.381E-02
 LARGEST RESIDUAL HEAT FLUX        -1.076E-05   AT NODE      40839   DOF 12
   INSTANCE: NDBR2P5                                                                         
 LARGEST INCREMENT OF TEMP.        -9.287E-03   AT NODE      16013   DOF 11
   INSTANCE: NDBR2P5                                                                         
 LARGEST CORRECTION TO TEMP.       -2.630E-04   AT NODE      19376   DOF 11
   INSTANCE: NDBR2P5                                                                         
 ESTIMATE OF TEMP.    CORRECTION   -2.740E-10
 HEAT FLUX EQUILIB. ACCEPTED BASED ON SMALL RESIDUAL AND ESTIMATED CORRECTION

 MAXIMUM NON-PRESCRIBED INCREMENT IN TEMPERATURE IS  -9.287E-03

 ITERATION SUMMARY FOR THE INCREMENT:   1 TOTAL ITERATIONS, OF WHICH
   0 ARE SEVERE DISCONTINUITY ITERATIONS AND  1 ARE EQUILIBRIUM ITERATIONS.

 TIME INCREMENT COMPLETED   4.91    ,  FRACTION OF STEP COMPLETED  7.000E-02
 STEP TIME COMPLETED        34.4    ,  TOTAL TIME COMPLETED        7.234E+03


  INCREMENT     8 STARTS. ATTEMPT NUMBER  1, TIME INCREMENT   4.91    
 
	UNSYMMETRIC NEW DIRECT SPARSE SOLVER RUNNING ON
 	1 HOST x 1 MPI RANK PER HOST x 8 THREADS PER RANK
        NUMBER OF EQUATIONS:  209685
        NUMBER OF RHS:        1
        NUMBER OF FLOPS:      4.960e+11
        SOLVER ELAPSED TIME:  2.5s

               CONVERGENCE CHECKS FOR EQUILIBRIUM ITERATION     1


 AVERAGE FORCE                      0.501       TIME AVG. FORCE       0.277    
 LARGEST SCALED RESIDUAL FORCE      2.711E-12   AT NODE      41672   DOF  2
   INSTANCE: NDBR2P5                                                                         
  CORRESPONDING RESIDUAL FORCE      2.711E-12
 LARGEST INCREMENT OF DISP.         1.228E-05   AT NODE      40148   DOF  2
   INSTANCE: NDBR2P5                                                                         
 LARGEST CORRECTION TO DISP.        9.572E-12   AT NODE       2093   DOF  2
   INSTANCE: NDBR2P5                                                                         
          THE FORCE     EQUILIBRIUM RESPONSE WAS LINEAR IN THIS INCREMENT

 AVERAGE HEAT FLUX                  0.220       TIME AVG. HEAT FLUX   0.110    
 LARGEST RESIDUAL HEAT FLUX        -1.417E-05   AT NODE      40839   DOF 12
   INSTANCE: NDBR2P5                                                                         
 LARGEST INCREMENT OF TEMP.        -9.418E-03   AT NODE      16013   DOF 11
   INSTANCE: NDBR2P5                                                                         
 LARGEST CORRECTION TO TEMP.       -2.138E-04   AT NODE      19376   DOF 11
   INSTANCE: NDBR2P5                                                                         
 ESTIMATE OF TEMP.    CORRECTION   -3.020E-10
 HEAT FLUX EQUILIB. ACCEPTED BASED ON SMALL RESIDUAL AND ESTIMATED CORRECTION

 MAXIMUM NON-PRESCRIBED INCREMENT IN TEMPERATURE IS  -9.418E-03

 ITERATION SUMMARY FOR THE INCREMENT:   1 TOTAL ITERATIONS, OF WHICH
   0 ARE SEVERE DISCONTINUITY ITERATIONS AND  1 ARE EQUILIBRIUM ITERATIONS.

 TIME INCREMENT COMPLETED   4.91    ,  FRACTION OF STEP COMPLETED  8.000E-02
 STEP TIME COMPLETED        39.3    ,  TOTAL TIME COMPLETED        7.239E+03


  INCREMENT     9 STARTS. ATTEMPT NUMBER  1, TIME INCREMENT   4.91    
 
	UNSYMMETRIC NEW DIRECT SPARSE SOLVER RUNNING ON
 	1 HOST x 1 MPI RANK PER HOST x 8 THREADS PER RANK
        NUMBER OF EQUATIONS:  209685
        NUMBER OF RHS:        1
        NUMBER OF FLOPS:      4.960e+11
        SOLVER ELAPSED TIME:  2.5s

               CONVERGENCE CHECKS FOR EQUILIBRIUM ITERATION     1


 AVERAGE FORCE                      0.563       TIME AVG. FORCE       0.309    
 LARGEST SCALED RESIDUAL FORCE      2.867E-12   AT NODE      41608   DOF  2
   INSTANCE: NDBR2P5                                                                         
  CORRESPONDING RESIDUAL FORCE      2.867E-12
 LARGEST INCREMENT OF DISP.         1.228E-05   AT NODE      40148   DOF  2
   INSTANCE: NDBR2P5                                                                         
 LARGEST CORRECTION TO DISP.        1.130E-11   AT NODE       2093   DOF  2
   INSTANCE: NDBR2P5                                                                         
          THE FORCE     EQUILIBRIUM RESPONSE WAS LINEAR IN THIS INCREMENT

 AVERAGE HEAT FLUX                  0.254       TIME AVG. HEAT FLUX   0.126    
 LARGEST RESIDUAL HEAT FLUX        -1.795E-05   AT NODE      40839   DOF 12
   INSTANCE: NDBR2P5                                                                         
 LARGEST INCREMENT OF TEMP.        -9.511E-03   AT NODE      16013   DOF 11
   INSTANCE: NDBR2P5                                                                         
 LARGEST CORRECTION TO TEMP.       -1.743E-04   AT NODE      19376   DOF 11
   INSTANCE: NDBR2P5                                                                         
 ESTIMATE OF TEMP.    CORRECTION   -3.205E-10
 HEAT FLUX EQUILIB. ACCEPTED BASED ON SMALL RESIDUAL AND ESTIMATED CORRECTION

 MAXIMUM NON-PRESCRIBED INCREMENT IN TEMPERATURE IS  -9.511E-03

 ITERATION SUMMARY FOR THE INCREMENT:   1 TOTAL ITERATIONS, OF WHICH
   0 ARE SEVERE DISCONTINUITY ITERATIONS AND  1 ARE EQUILIBRIUM ITERATIONS.

 TIME INCREMENT COMPLETED   4.91    ,  FRACTION OF STEP COMPLETED  9.000E-02
 STEP TIME COMPLETED        44.2    ,  TOTAL TIME COMPLETED        7.244E+03


  INCREMENT    10 STARTS. ATTEMPT NUMBER  1, TIME INCREMENT   4.91    
 
	UNSYMMETRIC NEW DIRECT SPARSE SOLVER RUNNING ON
 	1 HOST x 1 MPI RANK PER HOST x 8 THREADS PER RANK
        NUMBER OF EQUATIONS:  209685
        NUMBER OF RHS:        1
        NUMBER OF FLOPS:      4.960e+11
        SOLVER ELAPSED TIME:  2.5s

               CONVERGENCE CHECKS FOR EQUILIBRIUM ITERATION     1


 AVERAGE FORCE                      0.626       TIME AVG. FORCE       0.341    
 LARGEST SCALED RESIDUAL FORCE     -2.890E-12   AT NODE      41608   DOF  2
   INSTANCE: NDBR2P5                                                                         
  CORRESPONDING RESIDUAL FORCE     -2.890E-12
 LARGEST INCREMENT OF DISP.         1.228E-05   AT NODE      40148   DOF  2
   INSTANCE: NDBR2P5                                                                         
 LARGEST CORRECTION TO DISP.        1.306E-11   AT NODE       2093   DOF  2
   INSTANCE: NDBR2P5                                                                         
          THE FORCE     EQUILIBRIUM RESPONSE WAS LINEAR IN THIS INCREMENT

 AVERAGE HEAT FLUX                  0.288       TIME AVG. HEAT FLUX   0.142    
 LARGEST RESIDUAL HEAT FLUX        -2.205E-05   AT NODE      40839   DOF 12
   INSTANCE: NDBR2P5                                                                         
 LARGEST INCREMENT OF TEMP.        -9.579E-03   AT NODE      16013   DOF 11
   INSTANCE: NDBR2P5                                                                         
 LARGEST CORRECTION TO TEMP.       -1.497E-04   AT NODE      23930   DOF 11
   INSTANCE: NDBR2P5                                                                         
 ESTIMATE OF TEMP.    CORRECTION   -3.471E-10
 HEAT FLUX EQUILIB. ACCEPTED BASED ON SMALL RESIDUAL AND ESTIMATED CORRECTION

 MAXIMUM NON-PRESCRIBED INCREMENT IN TEMPERATURE IS  -9.579E-03

 ITERATION SUMMARY FOR THE INCREMENT:   1 TOTAL ITERATIONS, OF WHICH
   0 ARE SEVERE DISCONTINUITY ITERATIONS AND  1 ARE EQUILIBRIUM ITERATIONS.

 TIME INCREMENT COMPLETED   4.91    ,  FRACTION OF STEP COMPLETED  0.100    
 STEP TIME COMPLETED        49.1    ,  TOTAL TIME COMPLETED        7.249E+03


  INCREMENT    11 STARTS. ATTEMPT NUMBER  1, TIME INCREMENT   4.91    
 
	UNSYMMETRIC NEW DIRECT SPARSE SOLVER RUNNING ON
 	1 HOST x 1 MPI RANK PER HOST x 8 THREADS PER RANK
        NUMBER OF EQUATIONS:  209685
        NUMBER OF RHS:        1
        NUMBER OF FLOPS:      4.960e+11
        SOLVER ELAPSED TIME:  2.5s

               CONVERGENCE CHECKS FOR EQUILIBRIUM ITERATION     1


 AVERAGE FORCE                      0.688       TIME AVG. FORCE       0.372    
 LARGEST SCALED RESIDUAL FORCE     -2.844E-12   AT NODE      40440   DOF  2
   INSTANCE: NDBR2P5                                                                         
  CORRESPONDING RESIDUAL FORCE     -2.844E-12
 LARGEST INCREMENT OF DISP.         1.228E-05   AT NODE      40148   DOF  2
   INSTANCE: NDBR2P5                                                                         
 LARGEST CORRECTION TO DISP.        1.484E-11   AT NODE       2051   DOF  2
   INSTANCE: NDBR2P5                                                                         
          THE FORCE     EQUILIBRIUM RESPONSE WAS LINEAR IN THIS INCREMENT

 AVERAGE HEAT FLUX                  0.323       TIME AVG. HEAT FLUX   0.158    
 LARGEST RESIDUAL HEAT FLUX        -2.647E-05   AT NODE      40839   DOF 12
   INSTANCE: NDBR2P5                                                                         
 LARGEST INCREMENT OF TEMP.        -9.632E-03   AT NODE      16013   DOF 11
   INSTANCE: NDBR2P5                                                                         
 LARGEST CORRECTION TO TEMP.       -1.373E-04   AT NODE      23930   DOF 11
   INSTANCE: NDBR2P5                                                                         
 ESTIMATE OF TEMP.    CORRECTION   -3.918E-10
 HEAT FLUX EQUILIB. ACCEPTED BASED ON SMALL RESIDUAL AND ESTIMATED CORRECTION

 MAXIMUM NON-PRESCRIBED INCREMENT IN TEMPERATURE IS  -9.632E-03

 ITERATION SUMMARY FOR THE INCREMENT:   1 TOTAL ITERATIONS, OF WHICH
   0 ARE SEVERE DISCONTINUITY ITERATIONS AND  1 ARE EQUILIBRIUM ITERATIONS.

 TIME INCREMENT COMPLETED   4.91    ,  FRACTION OF STEP COMPLETED  0.110    
 STEP TIME COMPLETED        54.0    ,  TOTAL TIME COMPLETED        7.254E+03


  INCREMENT    12 STARTS. ATTEMPT NUMBER  1, TIME INCREMENT   4.91    
 
	UNSYMMETRIC NEW DIRECT SPARSE SOLVER RUNNING ON
 	1 HOST x 1 MPI RANK PER HOST x 8 THREADS PER RANK
        NUMBER OF EQUATIONS:  209685
        NUMBER OF RHS:        1
        NUMBER OF FLOPS:      4.960e+11
        SOLVER ELAPSED TIME:  2.4s

               CONVERGENCE CHECKS FOR EQUILIBRIUM ITERATION     1


 AVERAGE FORCE                      0.751       TIME AVG. FORCE       0.404    
 LARGEST SCALED RESIDUAL FORCE     -2.704E-12   AT NODE      41540   DOF  2
   INSTANCE: NDBR2P5                                                                         
  CORRESPONDING RESIDUAL FORCE     -2.704E-12
 LARGEST INCREMENT OF DISP.         1.228E-05   AT NODE      40148   DOF  2
   INSTANCE: NDBR2P5                                                                         
 LARGEST CORRECTION TO DISP.        1.665E-11   AT NODE       2051   DOF  2
   INSTANCE: NDBR2P5                                                                         
          THE FORCE     EQUILIBRIUM RESPONSE WAS LINEAR IN THIS INCREMENT

 AVERAGE HEAT FLUX                  0.359       TIME AVG. HEAT FLUX   0.175    
 LARGEST RESIDUAL HEAT FLUX        -3.118E-05   AT NODE      40839   DOF 12
   INSTANCE: NDBR2P5                                                                         
 LARGEST INCREMENT OF TEMP.        -9.674E-03   AT NODE      16013   DOF 11
   INSTANCE: NDBR2P5                                                                         
 LARGEST CORRECTION TO TEMP.       -1.260E-04   AT NODE      23930   DOF 11
   INSTANCE: NDBR2P5                                                                         
 ESTIMATE OF TEMP.    CORRECTION   -4.338E-10
 HEAT FLUX EQUILIB. ACCEPTED BASED ON SMALL RESIDUAL AND ESTIMATED CORRECTION

 MAXIMUM NON-PRESCRIBED INCREMENT IN TEMPERATURE IS  -9.674E-03

 ITERATION SUMMARY FOR THE INCREMENT:   1 TOTAL ITERATIONS, OF WHICH
   0 ARE SEVERE DISCONTINUITY ITERATIONS AND  1 ARE EQUILIBRIUM ITERATIONS.

 TIME INCREMENT COMPLETED   4.91    ,  FRACTION OF STEP COMPLETED  0.120    
 STEP TIME COMPLETED        58.9    ,  TOTAL TIME COMPLETED        7.259E+03


  INCREMENT    13 STARTS. ATTEMPT NUMBER  1, TIME INCREMENT   4.91    
 
	UNSYMMETRIC NEW DIRECT SPARSE SOLVER RUNNING ON
 	1 HOST x 1 MPI RANK PER HOST x 8 THREADS PER RANK
        NUMBER OF EQUATIONS:  209685
        NUMBER OF RHS:        1
        NUMBER OF FLOPS:      4.960e+11
        SOLVER ELAPSED TIME:  2.4s

               CONVERGENCE CHECKS FOR EQUILIBRIUM ITERATION     1


 AVERAGE FORCE                      0.813       TIME AVG. FORCE       0.435    
 LARGEST SCALED RESIDUAL FORCE     -2.540E-12   AT NODE      41636   DOF  2
   INSTANCE: NDBR2P5                                                                         
  CORRESPONDING RESIDUAL FORCE     -2.540E-12
 LARGEST INCREMENT OF DISP.         1.228E-05   AT NODE      40148   DOF  2
   INSTANCE: NDBR2P5                                                                         
 LARGEST CORRECTION TO DISP.        1.849E-11   AT NODE       2051   DOF  2
   INSTANCE: NDBR2P5                                                                         
          THE FORCE     EQUILIBRIUM RESPONSE WAS LINEAR IN THIS INCREMENT

 AVERAGE HEAT FLUX                  0.395       TIME AVG. HEAT FLUX   0.192    
 LARGEST RESIDUAL HEAT FLUX        -3.615E-05   AT NODE      40839   DOF 12
   INSTANCE: NDBR2P5                                                                         
 LARGEST INCREMENT OF TEMP.        -9.708E-03   AT NODE      16013   DOF 11
   INSTANCE: NDBR2P5                                                                         
 LARGEST CORRECTION TO TEMP.       -1.157E-04   AT NODE      23930   DOF 11
   INSTANCE: NDBR2P5                                                                         
 ESTIMATE OF TEMP.    CORRECTION   -4.730E-10
 HEAT FLUX EQUILIB. ACCEPTED BASED ON SMALL RESIDUAL AND ESTIMATED CORRECTION

 MAXIMUM NON-PRESCRIBED INCREMENT IN TEMPERATURE IS  -9.708E-03

 ITERATION SUMMARY FOR THE INCREMENT:   1 TOTAL ITERATIONS, OF WHICH
   0 ARE SEVERE DISCONTINUITY ITERATIONS AND  1 ARE EQUILIBRIUM ITERATIONS.

 TIME INCREMENT COMPLETED   4.91    ,  FRACTION OF STEP COMPLETED  0.130    
 STEP TIME COMPLETED        63.8    ,  TOTAL TIME COMPLETED        7.264E+03


  INCREMENT    14 STARTS. ATTEMPT NUMBER  1, TIME INCREMENT   4.91    
 
	UNSYMMETRIC NEW DIRECT SPARSE SOLVER RUNNING ON
 	1 HOST x 1 MPI RANK PER HOST x 8 THREADS PER RANK
        NUMBER OF EQUATIONS:  209685
        NUMBER OF RHS:        1
        NUMBER OF FLOPS:      4.960e+11
        SOLVER ELAPSED TIME:  2.5s

               CONVERGENCE CHECKS FOR EQUILIBRIUM ITERATION     1


 AVERAGE FORCE                      0.876       TIME AVG. FORCE       0.467    
 LARGEST SCALED RESIDUAL FORCE     -2.412E-12   AT NODE      41535   DOF  2
   INSTANCE: NDBR2P5                                                                         
  CORRESPONDING RESIDUAL FORCE     -2.412E-12
 LARGEST INCREMENT OF DISP.         1.228E-05   AT NODE      40148   DOF  2
   INSTANCE: NDBR2P5                                                                         
 LARGEST CORRECTION TO DISP.        2.037E-11   AT NODE       2051   DOF  2
   INSTANCE: NDBR2P5                                                                         
          THE FORCE     EQUILIBRIUM RESPONSE WAS LINEAR IN THIS INCREMENT

 AVERAGE HEAT FLUX                  0.432       TIME AVG. HEAT FLUX   0.209    
 LARGEST RESIDUAL HEAT FLUX        -4.138E-05   AT NODE      40839   DOF 12
   INSTANCE: NDBR2P5                                                                         
 LARGEST INCREMENT OF TEMP.        -9.736E-03   AT NODE      16013   DOF 11
   INSTANCE: NDBR2P5                                                                         
 LARGEST CORRECTION TO TEMP.       -1.064E-04   AT NODE      23930   DOF 11
   INSTANCE: NDBR2P5                                                                         
 ESTIMATE OF TEMP.    CORRECTION   -5.092E-10
 HEAT FLUX EQUILIB. ACCEPTED BASED ON SMALL RESIDUAL AND ESTIMATED CORRECTION

 MAXIMUM NON-PRESCRIBED INCREMENT IN TEMPERATURE IS  -9.736E-03

 ITERATION SUMMARY FOR THE INCREMENT:   1 TOTAL ITERATIONS, OF WHICH
   0 ARE SEVERE DISCONTINUITY ITERATIONS AND  1 ARE EQUILIBRIUM ITERATIONS.

 TIME INCREMENT COMPLETED   4.91    ,  FRACTION OF STEP COMPLETED  0.140    
 STEP TIME COMPLETED        68.7    ,  TOTAL TIME COMPLETED        7.269E+03


  INCREMENT    15 STARTS. ATTEMPT NUMBER  1, TIME INCREMENT   4.91    
 
	UNSYMMETRIC NEW DIRECT SPARSE SOLVER RUNNING ON
 	1 HOST x 1 MPI RANK PER HOST x 8 THREADS PER RANK
        NUMBER OF EQUATIONS:  209685
        NUMBER OF RHS:        1
        NUMBER OF FLOPS:      4.960e+11
