*Heading
** Job name: Job-1 Model name: Model-1
** Generated by: Abaqus/CAE 2023.HF4
*Preprint, echo=NO, model=NO, history=NO, contact=NO
**
** PARTS
**
*Part, name=elastic_hole_plate
*Node
      1, 0.0145979999,           0.
      2, 0.0145979999, 0.0141120004
      3,           0., 0.0141120004
      4,           0., 0.00400000019
      5, 0.00400000019,           0.
      6, 0.0529999994,           0.
      7, 0.0529999994, 0.0599999987
      8,           0., 0.0599999987
      9, 0.0145979999, 0.00100799999
     10, 0.0145979999, 0.00201599998
     11, 0.0145979999, 0.00302399998
     12, 0.0145979999, 0.00403199997
     13, 0.0145979999, 0.00504000019
     14, 0.0145979999, 0.00604799995
     15, 0.0145979999, 0.00705600018
     16, 0.0145979999, 0.00806399994
     17, 0.0145979999, 0.00907200016
     18, 0.0145979999, 0.0100800004
     19, 0.0145979999, 0.0110879997
     20, 0.0145979999, 0.0120959999
** ... 5179 like lines cut
*Element, type=CPE8HT
  1,  461,  532,  478,  470, 1760, 1761, 1762, 1763
  2,  414,  426,  448,  436, 1764, 1765, 1766, 1767
  3,  290,  273,  280,  297, 1768, 1769, 1770, 1771
  4,  373,  358,  371,  382, 1772, 1773, 1774, 1775
  5,   68,  193,  198,   67, 1776, 1777, 1778, 1779
  6,  368,  388,  389,  381, 1780, 1781, 1782, 1783
  7,  567,  565,  324,  313, 1784, 1785, 1786, 1787
  8,  269,  263,  270,  592, 1788, 1789, 1790, 1791
  9,  194,  183,  202,  543, 1792, 1793, 1794, 1795
 10,  555,  245,  229,  219, 1796, 1797, 1798, 1799
 11,  321,  327,  311,  296, 1800, 1801, 1802, 1803
 12,  425,  431,  585,  433, 1804, 1805, 1806, 1807
 13,  553,  489,  516,  512, 1808, 1809, 1810, 1811
 14,  469,  476,  480,  483, 1812, 1813, 1814, 1815
 15,   24,  501,  500,   23, 1816, 1817, 1818, 1819
 16,  517,   22,   23,  500, 1820, 1821, 1818, 1822
 17,   21,  517,  506,   20, 1823, 1824, 1825, 1826
 18,   21,    2,   22,  517, 1827, 1828, 1820, 1823
 19,  521,  518,  511,  506, 1829, 1830, 1831, 1832
 20,  418,  429,  441,  409, 1833, 1834, 1835, 1836
** ... 1662 like lines cut
*Nset, nset=Set-1, generate
    1,  5199,     1
*Elset, elset=Set-1, generate
    1,  1682,     1
*Nset, nset=Point_A
 5,
*Nset, nset=Point_B
 930,
*Nset, nset=Point_C
 4,
** Section: Section-1
*Solid Section, elset=Set-1, material=Material-1
,
*End Part
**  
**
** ASSEMBLY
**
*Assembly, name=Assembly
**  
*Instance, name=Part-1-1, part=elastic_hole_plate
*End Instance
**  
*Nset, nset=Set-1, instance=Part-1-1, generate
    1,  5199,     1
*Elset, elset=Set-1, instance=Part-1-1, generate
    1,  1682,     1
*Nset, nset=Set-2, instance=Part-1-1, generate
    1,  5199,     1
*Elset, elset=Set-2, instance=Part-1-1, generate
    1,  1682,     1
*Nset, nset=Set-3, instance=Part-1-1
    3,    4,    8,   36,   37,   38,   39,   40,   41,   42,   43,   44,   45,  159,  160,  161
  162,  163,  164,  165,  166,  167,  168,  169,  170,  171,  172,  173,  174,  175,  176,  177
  178,  179,  180, 1876, 1880, 1902, 1904, 2018, 2162, 2222, 2236, 2255, 2275, 2287, 2916, 2922
 2945, 2951, 2989, 3029, 3044, 3048, 3059, 3061, 3111, 3301, 3480, 3524, 3564, 3565, 3611, 3613
 3616, 3646, 3667, 3668, 3676
*Elset, elset=Set-3, instance=Part-1-1
  31,  32,  38,  39,  77, 149, 180, 186, 196, 203, 209, 520, 521, 528, 529, 543
 555, 559, 560, 563, 564, 592, 682, 767, 789, 804, 805, 826, 827, 829, 842, 849
 850, 853
*Nset, nset=Set-4, instance=Part-1-1
    1,    5,    6,   76,   77,   78,   79,   80,   81,   82,   83,   84,   85,   86,   87,   88
   89,   90,   91,   92,   93,   94,   95,   96,   97,   98,   99,  100,  101,  102,  103, 1954
 2010, 2066, 2166, 2238, 2335, 2360, 2484, 2506, 2608, 2610, 2744, 2770, 2794, 3206, 3220, 3250
 3421, 3433, 3454, 3493, 3540, 3555, 3577, 3705, 3708, 3738, 3747, 3788, 3952
*Elset, elset=Set-4, instance=Part-1-1
  54,  74, 101, 150, 188, 237, 249, 309, 322, 370, 371, 469, 478, 484, 637, 642
 659, 739, 744, 754, 772, 797, 802, 810, 865, 866, 876, 880, 900, 988
*Nset, nset=Set-8, instance=Part-1-1
    1,    3,    4,    5,    6,    7,    8,   36,   37,   38,   39,   40,   41,   42,   43,   44
   45,   46,   47,   48,   49,   50,   51,   52,   53,   54,   55,   56,   57,   58,   59,   60
   61,   62,   63,   64,   65,   66,   67,   68,   69,   70,   71,   72,   73,   74,   75,   76
   77,   78,   79,   80,   81,   82,   83,   84,   85,   86,   87,   88,   89,   90,   91,   92
   93,   94,   95,   96,   97,   98,   99,  100,  101,  102,  103,  104,  105,  106,  107,  108
  109,  110,  111,  112,  113,  114,  115,  116,  117,  118,  119,  120,  121,  122,  123,  124
  125,  126,  127,  128,  129,  130,  131,  132,  133,  134,  135,  136,  137,  138,  139,  140
  141,  142,  143,  144,  145,  146,  147,  148,  149,  150,  151,  152,  153,  154,  155,  156
  157,  158,  159,  160,  161,  162,  163,  164,  165,  166,  167,  168,  169,  170,  171,  172
  173,  174,  175,  176,  177,  178,  179,  180, 1779, 1856, 1857, 1876, 1880, 1884, 1902, 1904
 1912, 1915, 1917, 1920, 1924, 1928, 1931, 1935, 1938, 1939, 1943, 1946, 1949, 1954, 1976, 1981
 1985, 1996, 1998, 2003, 2009, 2010, 2011, 2016, 2018, 2023, 2046, 2064, 2066, 2162, 2166, 2222
 2236, 2238, 2255, 2275, 2287, 2335, 2360, 2484, 2506, 2608, 2610, 2719, 2720, 2744, 2770, 2771
 2774, 2794, 2831, 2832, 2835, 2867, 2871, 2898, 2904, 2908, 2910, 2913, 2915, 2916, 2919, 2922
 2925, 2929, 2932, 2941, 2943, 2945, 2951, 2966, 2968, 2971, 2973, 2975, 2977, 2980, 2982, 2986
 2989, 3029, 3044, 3048, 3059, 3061, 3111, 3206, 3220, 3250, 3292, 3301, 3401, 3421, 3431, 3433
 3454, 3480, 3490, 3493, 3496, 3500, 3505, 3524, 3539, 3540, 3555, 3564, 3565, 3571, 3577, 3586
 3588, 3590, 3593, 3597, 3609, 3611, 3613, 3615, 3616, 3624, 3635, 3638, 3642, 3646, 3667, 3668
 3676, 3685, 3687, 3689, 3691, 3693, 3703, 3705, 3708, 3738, 3747, 3788, 3911, 3914, 3917, 3952
*Elset, elset=Set-8, instance=Part-1-1
   5,  25,  26,  31,  32,  33,  38,  39,  41,  42,  43,  44,  45,  46,  47,  48
  49,  50,  51,  52,  53,  54,  61,  63,  65,  69,  70,  72,  74,  75,  77,  79
  90,  99, 101, 149, 150, 180, 186, 188, 196, 203, 209, 237, 249, 309, 322, 370
 371, 437, 438, 469, 478, 479, 484, 495, 496, 504, 505, 514, 515, 516, 517, 518
 519, 520, 521, 522, 523, 524, 526, 527, 528, 529, 534, 535, 536, 537, 538, 539
 540, 541, 542, 543, 555, 559, 560, 563, 564, 592, 637, 642, 659, 679, 682, 728
 739, 743, 744, 754, 767, 771, 772, 775, 777, 780, 789, 795, 797, 802, 804, 805
 808, 810, 815, 816, 817, 819, 821, 825, 826, 827, 828, 829, 832, 836, 837, 839
 842, 849, 850, 853, 857, 858, 859, 860, 861, 864, 865, 866, 876, 880, 900, 965
 967, 968, 988
*Nset, nset=Set-9, instance=Part-1-1
    6,    7,    8,  104,  105,  106,  107,  108,  109,  110,  111,  112,  113,  114,  115,  116
  117,  118,  119,  120,  121,  122,  123,  124,  125,  126,  127,  128,  129,  130,  131,  132
  133,  134,  135,  136,  137,  138,  139,  140,  141,  142,  143,  144,  145,  146,  147,  148
  149,  150,  151,  152,  153,  154,  155,  156,  157,  158, 2771, 2774, 2831, 2832, 2835, 2867
 2871, 2898, 2904, 2908, 2910, 2913, 2915, 2919, 2925, 2929, 2932, 2941, 2943, 2966, 2968, 2971
 2973, 2975, 2977, 2980, 2982, 2986, 3292, 3401, 3431, 3490, 3496, 3500, 3505, 3539, 3571, 3586
 3588, 3590, 3593, 3597, 3609, 3615, 3624, 3635, 3638, 3642, 3685, 3687, 3689, 3691, 3693, 3703
 3911, 3914, 3917
*Elset, elset=Set-9, instance=Part-1-1
 478, 479, 495, 496, 504, 505, 514, 515, 516, 517, 518, 519, 520, 522, 523, 524
 526, 527, 534, 535, 536, 537, 538, 539, 540, 541, 542, 679, 728, 743, 771, 775
 777, 780, 795, 808, 815, 816, 817, 819, 821, 825, 828, 832, 836, 837, 839, 857
 858, 859, 860, 861, 864, 965, 967, 968
*Nset, nset=Set-10, instance=Part-1-1
    6,    7,    8,  104,  105,  106,  107,  108,  109,  110,  111,  112,  113,  114,  115,  116
  117,  118,  119,  120,  121,  122,  123,  124,  125,  126,  127,  128,  129,  130,  131,  132
  133,  134,  135,  136,  137,  138,  139,  140,  141,  142,  143,  144,  145,  146,  147,  148
  149,  150,  151,  152,  153,  154,  155,  156,  157,  158, 2771, 2774, 2831, 2832, 2835, 2867
 2871, 2898, 2904, 2908, 2910, 2913, 2915, 2919, 2925, 2929, 2932, 2941, 2943, 2966, 2968, 2971
 2973, 2975, 2977, 2980, 2982, 2986, 3292, 3401, 3431, 3490, 3496, 3500, 3505, 3539, 3571, 3586
 3588, 3590, 3593, 3597, 3609, 3615, 3624, 3635, 3638, 3642, 3685, 3687, 3689, 3691, 3693, 3703
 3911, 3914, 3917
*Elset, elset=Set-10, instance=Part-1-1
 478, 479, 495, 496, 504, 505, 514, 515, 516, 517, 518, 519, 520, 522, 523, 524
 526, 527, 534, 535, 536, 537, 538, 539, 540, 541, 542, 679, 728, 743, 771, 775
 777, 780, 795, 808, 815, 816, 817, 819, 821, 825, 828, 832, 836, 837, 839, 857
 858, 859, 860, 861, 864, 965, 967, 968
*Nset, nset=Set-11, instance=Part-1-1
    6,    7,    8,  104,  105,  106,  107,  108,  109,  110,  111,  112,  113,  114,  115,  116
  117,  118,  119,  120,  121,  122,  123,  124,  125,  126,  127,  128,  129,  130,  131,  132
  133,  134,  135,  136,  137,  138,  139,  140,  141,  142,  143,  144,  145,  146,  147,  148
  149,  150,  151,  152,  153,  154,  155,  156,  157,  158, 2771, 2774, 2831, 2832, 2835, 2867
 2871, 2898, 2904, 2908, 2910, 2913, 2915, 2919, 2925, 2929, 2932, 2941, 2943, 2966, 2968, 2971
 2973, 2975, 2977, 2980, 2982, 2986, 3292, 3401, 3431, 3490, 3496, 3500, 3505, 3539, 3571, 3586
 3588, 3590, 3593, 3597, 3609, 3615, 3624, 3635, 3638, 3642, 3685, 3687, 3689, 3691, 3693, 3703
 3911, 3914, 3917
*Elset, elset=Set-11, instance=Part-1-1
 478, 479, 495, 496, 504, 505, 514, 515, 516, 517, 518, 519, 520, 522, 523, 524
 526, 527, 534, 535, 536, 537, 538, 539, 540, 541, 542, 679, 728, 743, 771, 775
 777, 780, 795, 808, 815, 816, 817, 819, 821, 825, 828, 832, 836, 837, 839, 857
 858, 859, 860, 861, 864, 965, 967, 968
*Nset, nset=Set-12, instance=Part-1-1, generate
    1,  5199,     1
*Elset, elset=Set-12, instance=Part-1-1, generate
    1,  1682,     1
*Nset, nset=Set-13, instance=Part-1-1, generate
    1,  5199,     1
*Elset, elset=Set-13, instance=Part-1-1, generate
    1,  1682,     1
*Elset, elset=_Surf-1_S2, internal, instance=Part-1-1
 495, 496, 522, 523, 524, 527, 539, 540, 541, 679, 780, 815, 816, 817, 825
*Elset, elset=_Surf-1_S4, internal, instance=Part-1-1
 504, 505, 520, 526, 534, 535, 536, 537, 538, 542, 828, 836
*Surface, type=ELEMENT, name=Surf-1
_Surf-1_S2, S2
_Surf-1_S4, S4
*Elset, elset=_Surf-2_S2, internal, instance=Part-1-1
 495, 496, 522, 523, 524, 527, 539, 540, 541, 679, 780, 815, 816, 817, 825
*Elset, elset=_Surf-2_S4, internal, instance=Part-1-1
 504, 505, 520, 526, 534, 535, 536, 537, 538, 542, 828, 836
*Surface, type=ELEMENT, name=Surf-2
_Surf-2_S2, S2
_Surf-2_S4, S4
*End Assembly
** 
** MATERIALS
** 
** Mechanical props: E (Pa), nu (dimless), element_flag (0 or 1)
** if element_flag = 0, element CPE8RT is used
** if element_flag = 1, element CPE8HT is used
** 
** Thermal props: R (J / (mol K), T (K), VH (m^3/mol), DL (m^2/s)
** 
** STATEV(1): eps_elastic(1)
** STATEV(2): eps_elastic(2)
** STATEV(3): eps_elastic(3)
** STATEV(4): eps_elastic(4)
** STATEV(5): hydrostatic_stress
** STATEV(6): Cbar_L
** STATEV(7): theta_L
** 
*Material, name=Material-1
*Density
1.,
*Depvar
      6,
*User Material, constants=4, type=THERMAL
 8.31446,    293.,   2e-06, 3.8e-11
*User Material, constants=3, type=MECHANICAL
 2e+11, 0.3,  2.
** 
** PREDEFINED FIELDS
** 
** Name: CL_bar_field   Type: Temperature
*Initial Conditions, type=TEMPERATURE
Set-13, 20.
** ----------------------------------------------------------------
** 
** STEP: Step-1
** 
*Step, name=Step-1, nlgeom=YES, inc=10000
*Coupled Temperature-displacement, creep=none, deltmx=1.
500., 1e+06, 100., 1000.
** 
** BOUNDARY CONDITIONS
** 
** Name: Xsymm Type: Symmetry/Antisymmetry/Encastre
*Boundary
Set-3, XSYMM
** Name: Ysymm Type: Symmetry/Antisymmetry/Encastre
*Boundary
Set-4, YSYMM
** 
** LOADS
** 
** Name: Load-1   Type: Pressure
*Dsload
Surf-2, P, -1e+08
** 
** OUTPUT REQUESTS
** 
*Restart, write, frequency=0
** 
** FIELD OUTPUT: F-Output-1
** 
*Output, field, frequency=10
*Node Output
COORD, NT
*Element Output, directions=YES
COORD, S, SDV
** 
** HISTORY OUTPUT: H-Output-1
** 
*Output, history, variable=PRESELECT
*End Step
