*HEADING
POLE TEST 58 KM/H: SUBMODEL
*NODE
      3200,  1742.18396     ,  841.961975     ,  508.560089     
      3201,  1742.66602     ,  840.214294     ,  492.653107
      3202,  1744.08398     ,  827.230713     ,  511.645203     
      3203,  1742.70496     ,  829.670471     ,  490.718292     
      3204,  1743.979       ,  867.297424     ,  505.372009     
      3205,  1745.54199     ,  858.583191     ,  488.513214     
      3206,  1744.15002     ,  830.268921     ,  477.228485
      3207,  1752.95105     ,  891.146484     ,  499.909088     
      3208,  1751.93506     ,  858.992798     ,  483.780212
      3209,  1751.34595     ,  825.656372     ,  470.362915     
      3210,  1852.41296     ,  892.704712     ,  496.193787
      3211,  1916.25598     ,  682.081421     ,  1822.80298     
      3212,  1890.44995     ,  680.9245       ,  1821.57397     
      3213,  1864.65698     ,  679.588806     ,  1819.74695
      3214,  1839.48804     ,  677.246216     ,  1816.36499     
      3215,  1821.578       ,  667.814026     ,  1801.05798     
      3216,  1814.03198     ,  657.992615     ,  1778.48303     
      3217,  1806.81702     ,  648.190491     ,  1755.63196     
      3218,  1916.87805     ,  666.434326     ,  1826.08301     
      3219,  1892.85498     ,  665.569092     ,  1824.44604     
** ... 18373 like lines cut
*NSET, NSET=door_nodes
   26000,   26001,   26002,   26003,   26004,   26005,   26006,   26007,
   26008,   26009,   26010,   26011,   26012,   26013,   26014,   26015,
   26016,   26017,   26018,   26019,   26020,   26021,   26022,   26023,
   26024,   26025,   26026,   26027,   26028,   26029,   26030,   26031,
   26032,   26200,   26201,   26202,   26203,   26204,   26205,   26206,
   26207,   26208,   26209,   26210,   26211,   26212,   26213,   26214,
   26215,   26216,   26217,   26218,   26219,   26220,   26221,   26222,
   26223,   26224,   26225,   26226,   26227,   26228,   26229,   26230,
   26231,   26232,   26233,   26234,   26235,   26236,   26237,   26238,
   26239,   26240,   27000,   27001,   27002,   27003,   27004,   27005,
   27006,   27007,   27008,   27009,   27010,   27011,   27012,   27013,
   27014,   27015,   27016,   27017,   27018,   27019,   27020,   27021,
   27022,   27023,   27024,   27025,   27026,   27027,   27028,   27029,
   27030,   27031,   27032,   27033,   27034,   27035,   27036,   27037,
   27038,   27039,   27040,   27041,   27042,   27043,   27044,   27045,
   27046,   27047,   27048,   27049,   27050,   27051,   27052,   27053,
   27054,   27055,   27056,   27057,   27058,   27059,   27060,   27061,
   27062,   27063,   27064,   27065,   27066,   27067,   27068,   27069,
   27070,   27071,   27072,   27073,   27074,   27075,   27076,   27077,
   27078,   27079,   27080,   27081,   27082,   27083,   27084,   27085,
** ... 413 like lines cut
*NSET, NSET=door_frame_nodes
    3200,    3201,    3202,    3203,    3204,    3205,    3206,    3207,
    3208,    3209,    3210,    3211,    3212,    3213,    3214,    3215,
    3216,    3217,    3218,    3219,    3220,    3221,    3222,    3223,
    3224,    3225,    3226,    3227,    3228,    3229,    3230,    3231,
    3232,    3233,    3234,    3235,    3236,    3237,    3238,    3239,
    3240,    3241,    3242,    3243,    3244,    3245,    3246,    3247,
    3248,    3249,    3250,    3251,    3252,    3253,    3254,    3255,
    3256,    3257,    3258,    3259,    3260,    3261,    3262,    3263,
    3264,    3265,    3266,    3267,    3268,    3269,    3270,    3271,
    3272,    3273,    3274,    3275,    3276,    3277,    3278,    3279,
    3280,    3281,    3282,    3283,    3284,    3285,    3286,    3287,
    3288,    3289,    3290,    3291,    3292,    3293,    3294,    3295,
    3296,    3297,    3298,    3299,    3300,    3301,    3302,    3303,
    3304,    3305,    3306,    3307,    3308,    3309,    3310,    3311,
    3312,    3313,    3314,    3315,    3316,    3317,    3318,    3319,
    3320,    3321,    3322,    3323,    3324,    3325,    3326,    3327,
    3328,    3329,    3330,    3331,    3332,    3333,    3334,    3335,
    3336,    3337,    3338,    3339,    3340,    3341,    3342,    3343,
    3344,    3345,    3346,    3347,    3348,    3349,    3350,    3351,
    3352,    3353,    3354,    3355,    3356,    3357,    3358,    3359,
** ... 181 like lines cut
********************************************************************************   
*ELEMENT,TYPE=B31,ELSET=DOOR-LOCK-BEAM-LEFT
     54753,    800225,    800226
     54754,    800226,    800227
     54755,    800227,    800215
*ELEMENT,TYPE=S3RS,ELSET=CABIN-BOTTOM-LEFT
    817261,      8052,   9000792,   9000790
    817262,      8050,   9000790,   9000789
    817264,      8094,   9000879,   9000877
    817265,      8098,   9000883,   9000879
    817267,      8119,   9000934,   9000927
    817268,      8118,   9000927,   9000929
    817270,      8052,   9000790,   9000797
    817271,      8050,   9000791,   9000790
    817273,      8055,   9000805,   9000762
    817274,      8038,   9000762,   9000763
    817276,      8055,   9000795,   9000805
    817277,      8052,   9000797,   9000795
    817279,      8160,   9000881,   9000885
    817280,      8094,   9000878,   9000881
    817282,      8043,   9000765,   9000768
    817283,      8039,   9000764,   9000765
*ELEMENT,TYPE=S3RS,ELSET=CABIN-D-HINGE-UP-LEFT
    818765,     82134,   9008715,   9008717
    818766,     82133,   9008716,   9008715
    818768,     82027,   9008562,   9008563
    818769,     82032,   9008563,   9008565
*ELEMENT,TYPE=S3RS,ELSET=CABIN-DOORJAMP-LEFT
    819143,     10508,   9001295,   9001291
    819144,     10506,   9001291,   9001290
    819146,     10600,   9001482,   9001490
    819147,     10598,   9001483,   9001482
    819149,     10712,   9001709,   9001706
    819150,     10708,   9001706,   9001705
    819152,     10526,   9001341,   9001342
    819153,     10949,   9002175,   9001341
    819155,     11016,   9002308,   9002303
    819156,     11012,   9002303,   9002302
    819158,     11016,   9002299,   9002308
    819159,     11011,   9002298,   9002299
    819161,     11073,   9002418,   9002414
    819162,     11082,   9002416,   9002418
    819164,     11078,   9002404,   9002427
    819165,     11069,   9002406,   9002404
    819167,     11116,   9002510,   9002511
    819168,     11119,   9002511,   9002514
    819170,     11159,   9002591,   9002595
    819171,     11158,   9002592,   9002591
** ... 64 like lines cut
*ELEMENT,TYPE=S3RS,ELSET=DOOR-HINGE-LOW-LEFT
    822429,     26009,   9002922,   9002924
    822430,     26031,   9002924,   9002926
    822432,     26001,   9002908,   9002902
    822433,     26000,   9002902,   9002905
    822435,     26009,   9002924,   9002923
    822436,     26013,   9002923,   9002934
    822438,     26013,   9002934,   9002933
    822439,     26031,   9002936,   9002934
    822441,     26012,   9002928,   9002932
    822442,     26014,   9002936,   9002928
    822444,     26014,   9002928,   9002935
    822445,     26012,   9002929,   9002928
    822447,     26000,   9002905,   9002904
    822448,     26010,   9002922,   9002905
*ELEMENT,TYPE=S3RS,ELSET=DOOR-HINGE-UP-LEFT
    822514,     26219,   9003003,   9003001
    822515,     26228,   9003005,   9003003
    822517,     26220,   9002993,   9002996
    822518,     26216,   9002992,   9002993
    822520,     26217,   9002995,   9002996
    822521,     26218,   9002997,   9002995
    822523,     26206,   9002966,   9002975
    822524,     26203,   9002967,   9002966
*ELEMENT,TYPE=S3RS,ELSET=DOOR-INNER-LEFT
    822622,     27206,   9003407,   9003410
    822623,     27205,   9003408,   9003407
    822625,     27240,   9003458,   9003460
    822626,     27231,   9003457,   9003458
    822628,     27240,   9003473,   9003478
    822629,     27241,   9003478,   9003474
    822631,     27248,   9003479,   9003477
    822632,     27239,   9003477,   9003475
    822634,     27241,   9003479,   9003480
    822635,     27250,   9003480,   9003498
    822637,     27253,   9003503,   9003506
    822638,     27252,   9003504,   9003503
    822640,     27298,   9003570,   9003545
    822641,     27273,   9003545,   9003544
    822643,     27284,   9003557,   9003554
    822644,     27279,   9003553,   9003557
    822646,     27283,   9003535,   9003538
    822647,     27271,   9003538,   9003534
    822649,     27298,   9003569,   9003570
    822650,     27284,   9003567,   9003569
** ... 76 like lines cut
*ELEMENT,TYPE=S3RS,ELSET=DOOR-OUTER-LEFT
    825626,     40250,   9008000,   9007999
    825627,     40255,   9007999,   9008006
    825629,     40536,   9008066,   9008068
    825630,     40292,   9008065,   9008066
    825632,     40319,   9008112,   9008024
    825633,     40529,   9008025,   9008112
    825635,     40320,   9008116,   9008111
    825636,     40529,   9008112,   9008116
*ELEMENT,TYPE=S3RS,ELSET=DOOR-REINF-LEFT
    827486,     30034,   9004713,   9004733
    827487,     30016,   9004712,   9004713
    827489,     30016,   9004713,   9004669
    827490,     30001,   9004669,   9004670
    827492,     30018,   9004718,   9004717
    827493,     30044,   9004729,   9004718
    827495,     30038,   9004765,   9004767
    827496,     30045,   9004781,   9004765
    827498,     30018,   9004719,   9004720
    827499,     30089,   9004848,   9004719
    827501,     30103,   9004686,   9004860
    827502,     30006,   9004687,   9004686
    827504,     30017,   9004693,   9004689
    827505,     30007,   9004689,   9004688
*ELEMENT,TYPE=S3RS,ELSET=DOOR-SIDEB-LEFT
    827839,     32467,   9005515,   9005749
    827840,     32192,   9005513,   9005515
    827842,     32125,   9005312,   9005315
    827843,     32192,   9005515,   9005312
    827845,     32213,   9005327,   9005563
    827846,     32128,   9005330,   9005327
    827848,     32213,   9005563,   9005561
    827849,     32464,   9005747,   9005563
*ELEMENT,TYPE=S3RS,ELSET=DOOR-SIDEB-MTG1-LEFT
    829411,     33034,   9005872,   9005887
    829412,     33024,   9005871,   9005872
    829414,     33036,   9005873,   9005890
    829415,     33024,   9005872,   9005873
    829417,     33017,   9005854,   9005856
    829418,     33058,   9005856,   9005858
    829420,     33058,   9005823,   9005856
    829421,     33017,   9005856,   9005821
    829423,     33015,   9005831,   9005848
    829424,     33023,   9005848,   9005832
    829426,     33024,   9005849,   9005869
    829427,     33015,   9005848,   9005849
    829429,     33015,   9005849,   9005850
    829430,     33024,   9005875,   9005849
    829432,     33024,   9005874,   9005875
    829433,     33037,   9005894,   9005874
    829435,     33035,   9005892,   9005891
    829436,     33037,   9005893,   9005892
    829438,     33024,   9005873,   9005874
    829439,     33036,   9005893,   9005873
*ELEMENT,TYPE=S3RS,ELSET=DOOR-SIDEB-MTG3-LEFT
    829589,     33126,   9005936,   9005935
    829590,     33134,   9005947,   9005936
    829592,     33125,   9005933,   9005932
    829593,     33134,   9005936,   9005933
    829595,     33137,   9005945,   9005956
    829596,     33129,   9005944,   9005945
    829598,     33122,   9005923,   9005924
    829599,     33137,   9005924,   9005945
*ELEMENT,TYPE=S3RS,ELSET=DOOR-TOPBAR-OUT-LEFT
    831317,     38015,   9006866,   9006868
    831318,     38220,   9007259,   9006866
*ELEMENT,TYPE=S4RS,ELSET=CABIN-BACK-PILLAR-OUTER-LEFT
    816024,   9009084,   9000014,      3200,   9000013
    816025,   9009084,   9000013,      3201,   9000017
    816026,   9009084,   9000017,      3203,   9000019
    816027,   9009084,   9000019,      3202,   9000014
    816028,   9009085,   9000015,      3204,   9000022
    816029,   9009085,   9000022,      3205,   9000018
    816030,   9009085,   9000018,      3201,   9000013
    816031,   9009085,   9000013,      3200,   9000015
    816032,   9009086,   9000018,      3205,   9000025
    816033,   9009086,   9000025,      3206,   9000021
    816034,   9009086,   9000021,      3203,   9000017
    816035,   9009086,   9000017,      3201,   9000018
    816036,   9009087,   9000022,      3204,   9000023
    816037,   9009087,   9000023,      3207,   9000028
    816038,   9009087,   9000028,      3208,   9000026
    816039,   9009087,   9000026,      3205,   9000022
    816040,   9009088,   9000025,      3205,   9000026
    816041,   9009088,   9000026,      3208,   9000031
    816042,   9009088,   9000031,      3209,   9000027
    816043,   9009088,   9000027,      3206,   9000025
** ... 1216 like lines cut
*ELEMENT,TYPE=S4RS,ELSET=CABIN-BOTTOM-LEFT
    817260,      8051,   9000789,   9000790,   9000792
    817263,      8095,   9000877,   9000879,   9000883
    817266,      8128,   9000929,   9000927,   9000934
    817269,      8308,   9000797,   9000790,   9000791
    817272,      8308,   9000763,   9000762,   9000805
    817275,      8308,   9000805,   9000795,   9000797
    817278,      8096,   9000885,   9000881,   9000878
    817281,      8040,   9000768,   9000765,   9000764
    817284,   9009393,   9000679,      8000,   9000678
    817285,   9009393,   9000678,      8001,   9000682
    817286,   9009393,   9000682,      8003,   9000685
    817287,   9009393,   9000685,      8002,   9000679
    817288,   9009394,   9000690,      8004,   9000691
    817289,   9009394,   9000691,      8007,   9000698
    817290,   9009394,   9000698,      8008,   9000694
    817291,   9009394,   9000694,      8005,   9000690
    817292,   9009395,   9000693,      8005,   9000694
    817293,   9009395,   9000694,      8008,   9000700
    817294,   9009395,   9000700,      8009,   9000696
    817295,   9009395,   9000696,      8006,   9000693
** ... 1084 like lines cut
*ELEMENT,TYPE=S4RS,ELSET=CABIN-D-HINGE-LOW-LEFT
    818380,   9009667,   9008726,     83000,   9008727
    818381,   9009667,   9008727,     83004,   9008738
    818382,   9009667,   9008738,     83005,   9008731
    818383,   9009667,   9008731,     83001,   9008726
    818384,   9009668,   9008730,     83001,   9008731
    818385,   9009668,   9008731,     83005,   9008741
    818386,   9009668,   9008741,     83006,   9008734
    818387,   9009668,   9008734,     83002,   9008730
    818388,   9009669,   9008733,     83002,   9008734
    818389,   9009669,   9008734,     83006,   9008743
    818390,   9009669,   9008743,     83007,   9008736
    818391,   9009669,   9008736,     83003,   9008733
    818392,   9009670,   9008778,     83024,   9008777
    818393,   9009670,   9008777,     83025,   9008781
    818394,   9009670,   9008781,     83029,   9008785
    818395,   9009670,   9008785,     83028,   9008778
    818396,   9009671,   9008781,     83025,   9008780
    818397,   9009671,   9008780,     83026,   9008783
    818398,   9009671,   9008783,     83030,   9008788
    818399,   9009671,   9008788,     83029,   9008781
** ... 364 like lines cut
*ELEMENT,TYPE=S4RS,ELSET=CABIN-D-HINGE-UP-LEFT
    818764,     82135,   9008717,   9008715,   9008716
    818767,     82028,   9008565,   9008563,   9008562
    818770,   9009763,   9008510,     82000,   9008509
    818771,   9009763,   9008509,     82001,   9008512
    818772,   9009763,   9008512,     82007,   9008524
    818773,   9009763,   9008524,     82006,   9008510
    818774,   9009764,   9008512,     82001,   9008511
    818775,   9009764,   9008511,     82002,   9008514
    818776,   9009764,   9008514,     82008,   9008526
    818777,   9009764,   9008526,     82007,   9008512
    818778,   9009765,   9008514,     82002,   9008513
    818779,   9009765,   9008513,     82003,   9008516
    818780,   9009765,   9008516,     82009,   9008528
    818781,   9009765,   9008528,     82008,   9008514
    818782,   9009766,   9008516,     82003,   9008515
    818783,   9009766,   9008515,     82004,   9008519
    818784,   9009766,   9008519,     82010,   9008530
    818785,   9009766,   9008530,     82009,   9008516
    818786,   9009767,   9008519,     82004,   9008518
    818787,   9009767,   9008518,     82005,   9008521
** ... 354 like lines cut
*ELEMENT,TYPE=S4RS,ELSET=CABIN-DOORJAMP-LEFT
    819142,     10507,   9001290,   9001291,   9001295
    819145,     10601,   9001490,   9001482,   9001483
    819148,     10711,   9001705,   9001706,   9001709
    819151,     10950,   9001342,   9001341,   9002175
    819154,     11015,   9002302,   9002303,   9002308
    819157,     11015,   9002308,   9002299,   9002298
    819160,     11072,   9002414,   9002418,   9002416
    819163,     11109,   9002427,   9002404,   9002406
    819166,     11118,   9002514,   9002511,   9002510
    819169,     11160,   9002595,   9002591,   9002592
    819172,     11160,   9002592,   9002587,   9002588
    819175,     11162,   9002589,   9002171,   9002172
    819178,     11161,   9002603,   9002606,   9002602
    819181,     11166,   9002609,   9002610,   9002611
    819184,     11172,   9002575,   9002576,   9002622
    819187,     11137,   9002553,   9002575,   9002554
    819190,     10517,   9001319,   9001316,   9001314
    819193,     10514,   9001310,   9001301,   9001302
    819196,     11192,   9002662,   9002664,   9002663
    819199,     11201,   9001986,   9001987,   9002679
** ... 2926 like lines cut
*ELEMENT,TYPE=S4RS,ELSET=DOOR-CLOSURE-LEFT
    822172,   9010582,   9008948,    800154,   9008953
    822173,   9010582,   9008953,    800157,   9008957
    822174,   9010582,   9008957,    800156,   9008949
    822175,   9010582,   9008949,    800153,   9008948
    822176,   9010583,   9008952,    800155,   9008955
    822177,   9010583,   9008955,    800158,   9008960
    822178,   9010583,   9008960,    800157,   9008953
    822179,   9010583,   9008953,    800154,   9008952
    822180,   9010584,   9008957,    800157,   9008961
    822181,   9010584,   9008961,    800160,   9008963
    822182,   9010584,   9008963,    800159,   9008958
    822183,   9010584,   9008958,    800156,   9008957
    822184,   9010585,   9008960,    800158,   9008962
    822185,   9010585,   9008962,    800161,   9008966
    822186,   9010585,   9008966,    800160,   9008961
    822187,   9010585,   9008961,    800157,   9008960
    822188,   9010586,   9008963,    800160,   9008967
    822189,   9010586,   9008967,    800163,   9008969
    822190,   9010586,   9008969,    800162,   9008964
    822191,   9010586,   9008964,    800159,   9008963
** ... 236 like lines cut
*ELEMENT,TYPE=S4RS,ELSET=DOOR-HINGE-LOW-LEFT
    822428,     26010,   9002926,   9002924,   9002922
    822431,     26010,   9002905,   9002902,   9002908
    822434,     26031,   9002934,   9002923,   9002924
    822437,     26014,   9002933,   9002934,   9002936
    822440,     26031,   9002932,   9002928,   9002936
    822443,     26015,   9002935,   9002928,   9002929
    822446,     26009,   9002904,   9002905,   9002922
    822449,   9010646,   9002902,     26000,   9002903
    822450,   9010646,   9002903,     26003,   9002911
    822451,   9010646,   9002911,     26004,   9002907
    822452,   9010646,   9002907,     26001,   9002902
    822453,   9010647,   9002906,     26001,   9002907
    822454,   9010647,   9002907,     26004,   9002913
    822455,   9010647,   9002913,     26005,   9002909
    822456,   9010647,   9002909,     26002,   9002906
    822457,   9010648,   9002911,     26003,   9002912
    822458,   9010648,   9002912,     26006,   9002916
    822459,   9010648,   9002916,     26007,   9002914
    822460,   9010648,   9002914,     26004,   9002911
    822461,   9010649,   9002913,     26004,   9002914
** ... 51 like lines cut
*ELEMENT,TYPE=S4RS,ELSET=DOOR-HINGE-UP-LEFT
    822513,     26221,   9003001,   9003003,   9003005
    822516,     26217,   9002996,   9002993,   9002992
    822519,     26220,   9002996,   9002995,   9002997
    822522,     26210,   9002975,   9002966,   9002967
    822525,   9010662,   9002985,     26211,   9002986
    822526,   9010662,   9002986,     26213,   9002989
    822527,   9010662,   9002989,     26239,   9002987
    822528,   9010662,   9002987,     26212,   9002985
    822529,   9010663,   9002983,     26212,   9002987
    822530,   9010663,   9002987,     26239,   9002984
    822531,   9010663,   9002984,     26210,   9002982
    822532,   9010663,   9002982,     26209,   9002983
    822533,   9010664,   9002989,     26213,   9002988
    822534,   9010664,   9002988,     26214,   9002990
    822535,   9010664,   9002990,     26215,   9002991
    822536,   9010664,   9002991,     26239,   9002989
    822537,   9010665,   9002984,     26239,   9002991
    822538,   9010665,   9002991,     26215,   9002976
    822539,   9010665,   9002976,     26206,   9002975
    822540,   9010665,   9002975,     26210,   9002984
** ... 80 like lines cut
*ELEMENT,TYPE=S4RS,ELSET=DOOR-INNER-LEFT
    822621,     27211,   9003410,   9003407,   9003408
    822624,     27232,   9003460,   9003458,   9003457
    822627,     27238,   9003474,   9003478,   9003473
    822630,     27241,   9003475,   9003477,   9003479
    822633,     27248,   9003498,   9003480,   9003479
    822636,     27254,   9003506,   9003503,   9003504
    822639,     27285,   9003544,   9003545,   9003570
    822642,     27277,   9003554,   9003557,   9003553
    822645,     27269,   9003534,   9003538,   9003535
    822648,     27285,   9003570,   9003569,   9003567
    822651,     27868,   9003028,   9003026,   9003767
    822654,     27412,   9003815,   9003817,   9003816
    822657,     27019,   9003072,   9003821,   9003073
    822660,     27417,   9003822,   9003818,   9003819
    822663,     27407,   9003806,   9003809,   9003808
    822666,     27259,   9003516,   9003736,   9003517
    822669,     27446,   9003864,   9003865,   9003880
    822672,     27452,   9003886,   9003887,   9003892
    822675,     27257,   9003495,   9003496,   9003513
    822678,     27458,   9003902,   9003904,   9003906
** ... 2888 like lines cut
*ELEMENT,TYPE=S4RS,ELSET=DOOR-OUTER-LEFT
    825625,     40259,   9008006,   9007999,   9008000
    825628,     40293,   9008068,   9008066,   9008065
    825631,     40274,   9008024,   9008112,   9008025
    825634,     40319,   9008111,   9008116,   9008112
    825637,   9011401,   9007494,     40000,   9007495
    825638,   9011401,   9007495,     40003,   9007502
    825639,   9011401,   9007502,     40004,   9007497
    825640,   9011401,   9007497,     40001,   9007494
    825641,   9011402,   9007502,     40003,   9007503
    825642,   9011402,   9007503,     40006,   9007511
    825643,   9011402,   9007511,     40007,   9007507
    825644,   9011402,   9007507,     40004,   9007502
    825645,   9011403,   9007506,     40004,   9007507
    825646,   9011403,   9007507,     40007,   9007514
    825647,   9011403,   9007514,     40008,   9007509
    825648,   9011403,   9007509,     40005,   9007506
    825649,   9011404,   9007511,     40006,   9007512
    825650,   9011404,   9007512,     40009,   9007517
    825651,   9011404,   9007517,     40010,   9007515
    825652,   9011404,   9007515,     40007,   9007511
** ... 1832 like lines cut
*ELEMENT,TYPE=S4RS,ELSET=DOOR-REINF-LEFT
    827485,     30024,   9004733,   9004713,   9004712
    827488,     30034,   9004670,   9004669,   9004713
    827491,     30022,   9004717,   9004718,   9004729
    827494,     30084,   9004767,   9004765,   9004781
    827497,     30102,   9004720,   9004719,   9004848
    827500,     30105,   9004860,   9004686,   9004687
    827503,     30008,   9004688,   9004689,   9004693
    827506,   9011863,   9004665,     30000,   9004664
    827507,   9011863,   9004664,     30001,   9004668
    827508,   9011863,   9004668,     30003,   9004672
    827509,   9011863,   9004672,     30002,   9004665
    827510,   9011864,   9004681,     30006,   9004684
    827511,   9011864,   9004684,     30007,   9004678
    827512,   9011864,   9004678,     30004,   9004677
    827513,   9011864,   9004677,     30005,   9004681
    827514,   9011865,   9004678,     30007,   9004688
    827515,   9011865,   9004688,     30008,   9004691
    827516,   9011865,   9004691,     30009,   9004679
    827517,   9011865,   9004679,     30004,   9004678
    827518,   9011866,   9004666,     30000,   9004665
** ... 319 like lines cut
*ELEMENT,TYPE=S4RS,ELSET=DOOR-SIDEB-LEFT
    827838,     32399,   9005749,   9005515,   9005513
    827841,     32467,   9005315,   9005312,   9005515
    827844,     32464,   9005563,   9005327,   9005330
    827847,     32398,   9005561,   9005563,   9005747
    827850,   9011946,   9004943,     32000,   9004942
    827851,   9011946,   9004942,     32001,   9004945
    827852,   9011946,   9004945,     32003,   9004948
    827853,   9011946,   9004948,     32002,   9004943
    827854,   9011947,   9004949,     32002,   9004948
    827855,   9011947,   9004948,     32003,   9004950
    827856,   9011947,   9004950,     32005,   9004952
    827857,   9011947,   9004952,     32004,   9004949
    827858,   9011948,   9004945,     32001,   9004946
    827859,   9011948,   9004946,     32006,   9004954
    827860,   9011948,   9004954,     32007,   9004951
    827861,   9011948,   9004951,     32003,   9004945
    827862,   9011949,   9004950,     32003,   9004951
    827863,   9011949,   9004951,     32007,   9004957
    827864,   9011949,   9004957,     32008,   9004953
    827865,   9011949,   9004953,     32005,   9004950
** ... 1544 like lines cut
*ELEMENT,TYPE=S4RS,ELSET=DOOR-SIDEB-MTG1-LEFT
    829410,     33032,   9005887,   9005872,   9005871
    829413,     33034,   9005890,   9005873,   9005872
    829416,     33018,   9005858,   9005856,   9005854
    829419,     33005,   9005821,   9005856,   9005823
    829422,     33009,   9005832,   9005848,   9005831
    829425,     33023,   9005869,   9005849,   9005848
    829428,     33038,   9005850,   9005849,   9005875
    829431,     33038,   9005875,   9005874,   9005894
    829434,     33036,   9005891,   9005892,   9005893
    829437,     33037,   9005874,   9005873,   9005893
    829440,   9012336,   9005823,     33058,   9005815
    829441,   9012336,   9005815,     33002,   9005813
    829442,   9012336,   9005813,     33006,   9005820
    829443,   9012336,   9005820,     33005,   9005823
    829444,   9012337,   9005813,     33002,   9005808
    829445,   9012337,   9005808,     33000,   9005809
    829446,   9012337,   9005809,     33007,   9005824
    829447,   9012337,   9005824,     33006,   9005813
    829448,   9012338,   9005840,     33021,   9005864
    829449,   9012338,   9005864,     33022,   9005868
** ... 138 like lines cut
*ELEMENT,TYPE=S4RS,ELSET=DOOR-SIDEB-MTG3-LEFT
    829588,     33130,   9005935,   9005936,   9005947
    829591,     33126,   9005932,   9005933,   9005936
    829594,     33133,   9005956,   9005945,   9005944
    829597,     33129,   9005945,   9005924,   9005923
    829600,   9012373,   9005918,     33120,   9005919
    829601,   9012373,   9005919,     33149,   9006002
    829602,   9012373,   9006002,     33150,   9005930
    829603,   9012373,   9005930,     33124,   9005918
    829604,   9012374,   9006002,     33149,   9005922
    829605,   9012374,   9005922,     33121,   9005921
    829606,   9012374,   9005921,     33125,   9005934
    829607,   9012374,   9005934,     33150,   9006002
    829608,   9012375,   9005932,     33126,   9005937
    829609,   9012375,   9005937,     33151,   9006003
    829610,   9012375,   9006003,     33150,   9005934
    829611,   9012375,   9005934,     33125,   9005932
    829612,   9012376,   9006003,     33151,   9005939
    829613,   9012376,   9005939,     33127,   9005929
    829614,   9012376,   9005929,     33124,   9005930
    829615,   9012376,   9005930,     33150,   9006003
** ... 208 like lines cut
*ELEMENT,TYPE=S4RS,ELSET=DOOR-SIDEB-ST1-LEFT
    829824,   9012429,   9004866,     31000,   9004867
    829825,   9012429,   9004867,     31032,   9004930
    829826,   9012429,   9004930,     31033,   9004876
    829827,   9012429,   9004876,     31004,   9004866
    829828,   9012430,   9004930,     31032,   9004869
    829829,   9012430,   9004869,     31001,   9004868
    829830,   9012430,   9004868,     31005,   9004877
    829831,   9012430,   9004877,     31033,   9004930
    829832,   9012431,   9004868,     31001,   9004870
    829833,   9012431,   9004870,     31034,   9004931
    829834,   9012431,   9004931,     31035,   9004878
    829835,   9012431,   9004878,     31005,   9004868
    829836,   9012432,   9004931,     31034,   9004872
    829837,   9012432,   9004872,     31002,   9004871
    829838,   9012432,   9004871,     31006,   9004879
    829839,   9012432,   9004879,     31035,   9004931
    829840,   9012433,   9004871,     31002,   9004873
    829841,   9012433,   9004873,     31036,   9004932
    829842,   9012433,   9004932,     31037,   9004880
    829843,   9012433,   9004880,     31006,   9004871
** ... 76 like lines cut
*ELEMENT,TYPE=S4RS,ELSET=DOOR-SIDEBAR-REINF-LEFT
    829920,   9012453,   9006045,     35000,   9006043
    829921,   9012453,   9006043,     35001,   9006046
    829922,   9012453,   9006046,     35089,   9006280
    829923,   9012453,   9006280,     35088,   9006045
    829924,   9012454,   9006049,     35088,   9006280
    829925,   9012454,   9006280,     35089,   9006051
    829926,   9012454,   9006051,     35003,   9006047
    829927,   9012454,   9006047,     35002,   9006049
    829928,   9012455,   9006050,     35002,   9006047
    829929,   9012455,   9006047,     35003,   9006052
    829930,   9012455,   9006052,     35091,   9006282
    829931,   9012455,   9006282,     35090,   9006050
    829932,   9012456,   9006055,     35090,   9006282
    829933,   9012456,   9006282,     35091,   9006057
    829934,   9012456,   9006057,     35005,   9006053
    829935,   9012456,   9006053,     35004,   9006055
    829936,   9012457,   9006056,     35004,   9006053
    829937,   9012457,   9006053,     35005,   9006058
    829938,   9012457,   9006058,     35093,   9006284
    829939,   9012457,   9006284,     35092,   9006056
** ... 540 like lines cut
*ELEMENT,TYPE=S4RS,ELSET=DOOR-TOPBAR-INN-LEFT
    830480,   9012593,   9006351,     36000,   9006350
    830481,   9012593,   9006350,     36001,   9006354
    830482,   9012593,   9006354,     36006,   9006364
    830483,   9012593,   9006364,     36008,   9006351
    830484,   9012594,   9006354,     36001,   9006353
    830485,   9012594,   9006353,     36002,   9006356
    830486,   9012594,   9006356,     36005,   9006361
    830487,   9012594,   9006361,     36006,   9006354
    830488,   9012595,   9006356,     36002,   9006355
    830489,   9012595,   9006355,     36003,   9006358
    830490,   9012595,   9006358,     36007,   9006362
    830491,   9012595,   9006362,     36005,   9006356
    830492,   9012596,   9006358,     36003,   9006357
    830493,   9012596,   9006357,     36004,   9006359
    830494,   9012596,   9006359,     36009,   9006366
    830495,   9012596,   9006366,     36007,   9006358
    830496,   9012597,   9006368,     36008,   9006364
    830497,   9012597,   9006364,     36006,   9006365
    830498,   9012597,   9006365,     36011,   9006375
    830499,   9012597,   9006375,     36013,   9006368
** ... 816 like lines cut
*ELEMENT,TYPE=S4RS,ELSET=DOOR-TOPBAR-OUT-LEFT
    831316,     38315,   9006868,   9006866,   9007259
    831319,   9012802,   9006832,     38000,   9006831
    831320,   9012802,   9006831,     38001,   9006835
    831321,   9012802,   9006835,     38007,   9006847
    831322,   9012802,   9006847,     38008,   9006832
    831323,   9012803,   9006835,     38001,   9006834
    831324,   9012803,   9006834,     38002,   9006837
    831325,   9012803,   9006837,     38005,   9006843
    831326,   9012803,   9006843,     38007,   9006835
    831327,   9012804,   9006837,     38002,   9006836
    831328,   9012804,   9006836,     38003,   9006839
    831329,   9012804,   9006839,     38006,   9006842
    831330,   9012804,   9006842,     38005,   9006837
    831331,   9012805,   9006839,     38003,   9006838
    831332,   9012805,   9006838,     38004,   9006840
    831333,   9012805,   9006840,     38009,   9006845
    831334,   9012805,   9006845,     38006,   9006839
    831335,   9012806,   9006849,     38008,   9006847
    831336,   9012806,   9006847,     38007,   9006848
    831337,   9012806,   9006848,     38012,   9006857
** ... 1001 like lines cut
*ELEMENT,TYPE=S4RS,ELSET=DOOR-WINDOWWG-LEFT
    832339,   9013057,   9007418,     39000,   9007419
    832340,   9013057,   9007419,     39002,   9007424
    832341,   9013057,   9007424,     39003,   9007421
    832342,   9013057,   9007421,     39001,   9007418
    832343,   9013058,   9007422,     39001,   9007421
    832344,   9013058,   9007421,     39003,   9007425
    832345,   9013058,   9007425,     39005,   9007426
    832346,   9013058,   9007426,     39004,   9007422
    832347,   9013059,   9007427,     39004,   9007426
    832348,   9013059,   9007426,     39005,   9007429
    832349,   9013059,   9007429,     39007,   9007430
    832350,   9013059,   9007430,     39006,   9007427
    832351,   9013060,   9007432,     39008,   9007420
    832352,   9013060,   9007420,     39000,   9007418
    832353,   9013060,   9007418,     39001,   9007423
    832354,   9013060,   9007423,     39009,   9007432
    832355,   9013061,   9007433,     39009,   9007423
    832356,   9013061,   9007423,     39001,   9007422
    832357,   9013061,   9007422,     39004,   9007428
    832358,   9013061,   9007428,     39010,   9007433
** ... 100 like lines cut
*ELEMENT,TYPE=C3D8R,ELSET=DOOR-LOCK-LEFT
    832459,    800371,   9013088,   9013224,   9013099,   9013101,   9013227,   9013316,
   9013239
    832460,   9013088,    800368,   9013087,   9013224,   9013227,   9013091,   9013226,
   9013316
    832461,   9013099,   9013224,   9013093,    800372,   9013239,   9013316,   9013234,
   9013104
    832462,   9013224,   9013087,    800369,   9013093,   9013316,   9013226,   9013095,
   9013234
    832463,   9013101,   9013227,   9013316,   9013239,    800401,   9013172,   9013296,
   9013173
    832464,   9013227,   9013091,   9013226,   9013316,   9013172,    800402,   9013175,
   9013296
    832465,   9013239,   9013316,   9013234,   9013104,   9013173,   9013296,   9013178,
    800404
    832466,   9013316,   9013226,   9013095,   9013234,   9013296,   9013175,    800403,
   9013178
    832467,    800372,   9013093,   9013231,   9013102,   9013104,   9013234,   9013317,
   9013242
    832468,   9013093,    800369,   9013092,   9013231,   9013234,   9013095,   9013233,
   9013317
** ... 300 like lines cut
********************************************************************************
*SOLID SECTION, ELSET=DOOR-LOCK-LEFT, MATERIAL=Elastic-DOOR-LOCK
*SHELL SECTION, ELSET=CABIN-BACK-PILLAR-OUTER-LEFT, CONTROLS = SHELLCONTROLS, MATERIAL=ElasticPlastic-1
1.1       ,         3
*SHELL SECTION, ELSET=CABIN-BOTTOM-LEFT, CONTROLS = SHELLCONTROLS, MATERIAL=ElasticPlastic-1
1.8       ,         3
*SHELL SECTION, ELSET=CABIN-D-HINGE-LOW-LEFT, CONTROLS = SHELLCONTROLS, MATERIAL=ElasticPlastic-1
5.977     ,         3
*SHELL SECTION, ELSET=CABIN-D-HINGE-UP-LEFT, CONTROLS = SHELLCONTROLS, MATERIAL=ElasticPlastic-1
6.027     ,         3
*SHELL SECTION, ELSET=CABIN-DOORJAMP-LEFT, CONTROLS = SHELLCONTROLS, MATERIAL=ElasticPlastic-1
1.033     ,         3
***SHELL SECTION, ELSET=DOOR-CLOSURE-IN-LEFT, CONTROLS = SHELLCONTROLS, MATERIAL=ElasticPlastic-2
**1.0       ,         3
*SHELL SECTION, ELSET=DOOR-CLOSURE-LEFT, CONTROLS = SHELLCONTROLS, MATERIAL=ElasticPlastic-2
1.0       ,         3
*SHELL SECTION, ELSET=DOOR-HINGE-LOW-LEFT, CONTROLS = SHELLCONTROLS, MATERIAL=ElasticPlastic-2
6.4       ,         3
*SHELL SECTION, ELSET=DOOR-HINGE-UP-LEFT, CONTROLS = SHELLCONTROLS, MATERIAL=ElasticPlastic-2
6.4       ,         3
*SHELL SECTION, ELSET=DOOR-INNER-LEFT, CONTROLS = SHELLCONTROLS, MATERIAL=ElasticPlastic-2
1.24      ,         3
*SHELL SECTION, ELSET=DOOR-OUTER-LEFT, CONTROLS = SHELLCONTROLS, MATERIAL=ElasticPlastic-1
0.9       ,         3
*SHELL SECTION, ELSET=DOOR-REINF-LEFT, CONTROLS = SHELLCONTROLS, MATERIAL=ElasticPlastic-2
2.5       ,         3
*SHELL SECTION, ELSET=DOOR-SIDEB-LEFT, CONTROLS = SHELLCONTROLS, MATERIAL=ElasticPlastic-2
2.4       ,         3
*SHELL SECTION, ELSET=DOOR-SIDEB-MTG1-LEFT, CONTROLS = SHELLCONTROLS, MATERIAL=ElasticPlastic-2
2.0       ,         3
*SHELL SECTION, ELSET=DOOR-SIDEB-MTG3-LEFT, CONTROLS = SHELLCONTROLS, MATERIAL=ElasticPlastic-2
2.0       ,         3
*SHELL SECTION, ELSET=DOOR-SIDEB-ST1-LEFT, CONTROLS = SHELLCONTROLS, MATERIAL=ElasticPlastic-2
1.5       ,         3
*SHELL SECTION, ELSET=DOOR-SIDEBAR-REINF-LEFT, CONTROLS = SHELLCONTROLS, MATERIAL=ElasticPlastic-2
1.8       ,         3
*SHELL SECTION, ELSET=DOOR-TOPBAR-INN-LEFT, CONTROLS = SHELLCONTROLS, MATERIAL=ElasticPlastic-2
1.0       ,         3
*SHELL SECTION, ELSET=DOOR-TOPBAR-OUT-LEFT, CONTROLS = SHELLCONTROLS, MATERIAL=ElasticPlastic-2
1.0       ,         3
*SHELL SECTION, ELSET=DOOR-WINDOWWG-LEFT, CONTROLS = SHELLCONTROLS, MATERIAL=ElasticPlastic-2
1.0       ,         3
*BEAM GENERAL SECTION, ELSET=DOOR-LOCK-BEAM-LEFT, DENSITY=7.8900E-09, SECTION=GENERAL
28.27     ,63.62     ,0.0       ,63.62     ,127.2     ,0.0       ,0.0

210000.0  ,80769.2308,0.0       ,0.0
*RIGID BODY, REF NODE =    1800215, ELSET = DOOR-CLOSURE-LEFT
********************************************************************************
*Node, nset=door_frame_nodes
 800229,   1874.87695,   867.284424,   938.169373
 800230,   1874.45996,   861.906982,   939.317688
 800231,   1874.04395,   856.530212,   940.466125
 800232,   1874.47705,   869.908691,   945.107178
 800233,   1873.94397,   865.385681,    948.21582
 800234,   1873.41101,   860.862488,   951.324402
 800235,   1874.06897,   874.991394,   950.509399
 800236,   1873.41895,   872.008484,   955.101196
 800237,   1872.76904,    869.02533,   959.692993
 800238,   1873.71497,   881.758179,   953.553284
 800239,   1872.96594,   880.766785,    958.92572
 800240,   1872.21704,    879.77533,   964.297913
 800241,   1873.46802,   889.179077,   953.775574
 800242,   1872.65295,   890.327698,   959.106812
 800243,   1871.83801,   891.476318,   964.437988
 800244,   1873.36694,    896.12439,   951.142578
 800245,   1872.52905,   899.235474,   955.617371
 800246,   1871.68994,   902.346497,    960.09198
 800247,     1873.427,   901.536926,   946.054871
 800248,   1872.61096,   906.133972,    948.98822
** ... 53 like lines cut
 *ELEMENT, TYPE=S4RS, ELSET=DOOR-CLOSURE-IN-LEFT
   42742,   800230,   800233,   800232,   800229
   42743,   800231,   800234,   800233,   800230
   42744,   800233,   800236,   800235,   800232
   42745,   800234,   800237,   800236,   800233
   42746,   800236,   800239,   800238,   800235
   42747,   800237,   800240,   800239,   800236
   42748,   800239,   800242,   800241,   800238
   42749,   800240,   800243,   800242,   800239
   42750,   800242,   800245,   800244,   800241
   42751,   800243,   800246,   800245,   800242
   42752,   800245,   800248,   800247,   800244
   42753,   800246,   800249,   800248,   800245
   42754,   800248,   800251,   800250,   800247
   42755,   800249,   800252,   800251,   800248
   42756,   800251,   800254,   800253,   800250
   42757,   800252,   800255,   800254,   800251
   42758,   800254,   800257,   800256,   800253
   42759,   800255,   800258,   800257,   800254
   42760,   800257,   800260,   800259,   800256
   42761,   800258,   800261,   800260,   800257
** ... 44 like lines cut
*SHELL SECTION, CONTROLS=SHELLCONTROLS, ELSET=DOOR-CLOSURE-IN-LEFT, MATERIAL=ElasticPlastic-2
    1.0000,     3
**
*NSET, NSET=DOOR-LOCK-BEAMS-LT-COUP-1
  800215,  800226,  800227
*NSET, NSET=DOOR-LOCK-LT-COUP-1
  800401,  800402,  800403,  800404,  800405,  800406,  800407,  800408,
  800409,  800410,  800411,  800412,  800413,  800414,  800415,  800416,
  800417,  800418,  800419,  800420,  800421,  800422,  800423,  800424,
  800425,  800426,  800427,  800428,  800429,  800430,  800431,  800432,
  800433,
*NSET, NSET=DOOR-LOCK-LT-COUP
DOOR-LOCK-LT-COUP-1,
*ELSET, ELSET=CABIN-D-HINGE-LOW-LT, GENERATE
818580,818639,1
818644,818655,1
818660,818671,1
818676,818687,1
*ELSET, ELSET=CABIN-D-HINGE-UP-LT, GENERATE
818770,818829,1
818862,818921,1
*ELSET, ELSET=CABIN-DOORJAMP-LT, GENERATE
822108,822171,1
**--------------------------------------
**
** connection: door closure
**
*SURFACE, NAME = DOOR-CLOSURE-IN-LT, TYPE = ELEMENT
DOOR-CLOSURE-IN-LEFT
*SURFACE, NAME = CABIN-DOORJAMP-LT, TYPE = ELEMENT
CABIN-DOORJAMP-LT
*SURFACE, NAME = DOOR-LOCK-LT-COUP, TYPE = NODE
DOOR-LOCK-LT-COUP, 1.0
*TIE, NAME = DOOR-CLOSURE-IN-LT-DOORJAMP, POSITION TOLERANCE = 100.0
DOOR-CLOSURE-IN-LT,CABIN-DOORJAMP-LT
*COUPLING, REF NODE=1800291, CONSTRAINT NAME=CABIN-DOORJAMP-LT.5, SURFACE=CABIN-DOORJAMP-LT
*DISTRIBUTING
*COUPLING, REF NODE=800225, CONSTRAINT NAME=DOOR-LOCK-LT-COUP.4, SURFACE=DOOR-LOCK-LT-COUP
*DISTRIBUTING
**
** connection: door hinges and cabin
**
*SURFACE, NAME = CABIN-D-HINGE-LOW-LT, TYPE = ELEMENT
CABIN-D-HINGE-LOW-LEFT
*SURFACE, NAME = CABIN-D-HINGE-UP-LT, TYPE = ELEMENT
CABIN-D-HINGE-UP-LEFT
*SURFACE, NAME = DOOR-HINGE-LOW-LT-COUP, TYPE = ELEMENT
DOOR-HINGE-LOW-LEFT
*SURFACE, NAME = DOOR-HINGE-UP-LT-COUP, TYPE = ELEMENT
DOOR-HINGE-UP-LEFT
*COUPLING, REF NODE=9000010, CONSTRAINT NAME=DOOR-HINGE-LOW-LT-COUP.1, SURFACE=DOOR-HINGE-LOW-LT-COUP
*DISTRIBUTING
*COUPLING, REF NODE=9000009, CONSTRAINT NAME=CABIN-D-HINGE-LOW-LT.2, SURFACE=CABIN-D-HINGE-LOW-LT
*DISTRIBUTING
*COUPLING, REF NODE=9000012, CONSTRAINT NAME=DOOR-HINGE-UP-LT-COUP.3, SURFACE=DOOR-HINGE-UP-LT-COUP
*DISTRIBUTING
*COUPLING, REF NODE=9000011, CONSTRAINT NAME=CABIND-D-HINGE-UP-LT, SURFACE=CABIN-D-HINGE-UP-LT
*DISTRIBUTING
******************************************************************************************
**
** surface definitions for contact
**
*SURFACE, NAME=SURFACE-RIGID-POLE
RIGID_POLE,
*SURFACE, NAME = DOOR-INNER-LEFT-SURF, TYPE = ELEMENT
DOOR-INNER-LEFT
*SURFACE, NAME = CABIN-BACK-PILLAR-OUTER-LEFT-SURF, TYPE = ELEMENT
CABIN-BACK-PILLAR-OUTER-LEFT
******************************************************************************************
** add dummy mass/rotary inertia to coupling ref nodes
*ELEMENT, TYPE=MASS, ELSET=door_left_mass
816001,9000010
816002,9000012
816003,1800215
*MASS, ELSET=door_left_mass
1e-06,
*ELEMENT, TYPE=ROTARYI, ELSET=door_left_rotary
816021,9000010
816022,9000012
816023,1800215
*ROTARY INERTIA, ELSET=door_left_rotary
1e-06,1e-06,1e-06
**-----------------------------------------------------
** add dummy mass/rotary inertia to coupling ref nodes
*ELEMENT, TYPE=MASS, ELSET=cabin_mass
812001,9000011
812003,9000009
*MASS, ELSET=cabin_mass
1e-06,
*ELEMENT, TYPE=ROTARYI, ELSET=cabin_rotary
812021,9000011
812023,9000009
*ROTARY INERTIA, ELSET=cabin_rotary
1e-06,1e-06,1e-06
**---------------------------------------------------------------
**
**                  DOOR HINGES LEFT AND CABIN
**
**---------------------------------------------------------------
*ORIENTATION,NAME=ori_conn_door_left
 0.,0.,1., 1.,0.,0.
 3,0
*ELEMENT, TYPE=CONN3D2, ELSET=conn_door_hinge_left_cabin
** LOW
 620601,9000009,9000010
** UP
 620602,9000011,9000012
*CONNECTOR SECTION, ELSET=conn_door_hinge_left_cabin, BEHAVIOR=conn_door_hinges_beh
**join,align
join,revolute
ori_conn_door_left,
*CONNECTOR BEHAVIOR, NAME=conn_door_hinges_beh
*CONNECTOR ELASTICITY,COMPONENT=4
10.0,
**---------------------------------------------------------------
**
**                  DOOR LOCK LEFT AND CABIN
**
**---------------------------------------------------------------
*ELEMENT, TYPE=CONN3D2, ELSET=conn_door_lock_left_cabin_cart
 620605,1800291,1800215
*CONNECTOR SECTION, ELSET=conn_door_lock_left_cabin_cart
cartesian,cardan
ori_conn_door_left,
*ELEMENT, TYPE=CONN3D2, ELSET=conn_door_lock_left_cabin
 620615,1800291,1800215
*CONNECTOR SECTION, ELSET=conn_door_lock_left_cabin
axial,
**--------------------------------------
*MATERIAL, NAME=ElasticPlastic-1
*DENSITY
     7.8900e-009,
*ELASTIC
     2.1000e+005,      3.0000e-001
*PLASTIC
     270.000,      0.0000e+000
    320.29999,     0.048790
    366.29999,     0.0953100
    402.50000,     0.1398000
    438.79999,     0.2231000
    448.50000,     0.2624000
    449.00000,     2.3980000
**--------------------------------------
*MATERIAL, NAME=ElasticPlastic-2
*DENSITY
     7.8900e-009,
*ELASTIC
     2.1000e+005,      3.0000e-001
*PLASTIC
    350.00000,     0.0000000
    388.50000,     0.0487900
    429.00000,     0.0953100
    480.00000,     0.1823000
    493.79999,     0.2231000
    494.00000,     0.2624000
    504.00000,     2.3980000
**--------------------------------------
*MATERIAL, NAME=Elastic-DOOR-LOCK
*DENSITY
     2.5000e-009,
*ELASTIC
     2.1000e+005,      3.0000e-001
**--------------------------------------
**
*SECTION CONTROLS, NAME=SHELLCONTROLS, HOURGLASS=STIFFNESS
********************************************************************************
**
** RIGID POLE DEFINITION
**
*SYSTEM
2240.0, 1102.0, 1.15
*NODE
7000001, -127.0, 0.0, 2000.0
7000002, -127.0, 0.0, 1960.0
7000003, -127.0, 0.0, 1920.0
7000004, -127.0, 0.0, 1880.0
7000005, -127.0, 0.0, 1840.0
7000006, -127.0, 0.0, 1800.0
7000007, -127.0, 0.0, 1760.0
7000008, -127.0, 0.0, 1720.0
7000009, -127.0, 0.0, 1680.0
7000010, -127.0, 0.0, 1640.0
7000011, -127.0, 0.0, 1600.0
7000012, -127.0, 0.0, 1560.0
7000013, -127.0, 0.0, 1520.0
7000014, -127.0, 0.0, 1480.0
7000015, -127.0, 0.0, 1440.0
7000016, -127.0, 0.0, 1400.0
7000017, -127.0, 0.0, 1360.0
7000018, -127.0, 0.0, 1320.0
7000019, -127.0, 0.0, 1280.0
7000020, -127.0, 0.0, 1240.0
** ... 2734 like lines cut
*ELEMENT, TYPE=R3D4, elset=rigid_pole
7000001, 7000001, 7000002, 7000053, 7000052
7000002, 7000002, 7000003, 7000054, 7000053
7000003, 7000003, 7000004, 7000055, 7000054
7000004, 7000004, 7000005, 7000056, 7000055
7000005, 7000005, 7000006, 7000057, 7000056
7000006, 7000006, 7000007, 7000058, 7000057
7000007, 7000007, 7000008, 7000059, 7000058
7000008, 7000008, 7000009, 7000060, 7000059
7000009, 7000009, 7000010, 7000061, 7000060
7000010, 7000010, 7000011, 7000062, 7000061
7000011, 7000011, 7000012, 7000063, 7000062
7000012, 7000012, 7000013, 7000064, 7000063
7000013, 7000013, 7000014, 7000065, 7000064
7000014, 7000014, 7000015, 7000066, 7000065
7000015, 7000015, 7000016, 7000067, 7000066
7000016, 7000016, 7000017, 7000068, 7000067
7000017, 7000017, 7000018, 7000069, 7000068
7000018, 7000018, 7000019, 7000070, 7000069
7000019, 7000019, 7000020, 7000071, 7000070
7000020, 7000020, 7000021, 7000072, 7000071
** ... 2680 like lines cut
*Node, nset=rigid_pole_ref_node
7002755, 0.0, 0.0, 0.0
*SYSTEM
*Rigid Body, ref node=rigid_pole_ref_node, elset=rigid_pole
*BOUNDARY
rigid_pole_ref_node,1,6,0.0
********************************************************************************
**
**  connection:  CABIN-BOTTOM-LEFT and CABIN-DOORJAMP-LEFT
**
*node, nset=fastener_nset1
6100001, 2.91096E+03, 827.494, 569.777
6100002, 2.87672E+03, 828.404, 556.686
6100003, 2.84134E+03, 828.659, 548.923
6100004, 2.79794E+03, 823.152, 548.913
6100005, 2.75473E+03, 822.967, 548.853
6100006, 2.71141E+03, 823.05, 549.278
6100007, 2.66796E+03, 823.298, 549.795
6100008, 2.6245E+03, 823.554, 550.355
6100009, 2.58123E+03, 823.893, 550.939
6100010, 2.53815E+03, 824.289, 551.646
6100011, 2.49463E+03, 824.456, 552.373
6100012, 2.45111E+03, 824.752, 553.098
6100013, 2.40784E+03, 825.248, 553.657
6100014, 2.36449E+03, 825.758, 554.208
6100015, 2.32115E+03, 826.373, 554.798
6100016, 2.2778E+03, 829.876, 554.882
6100017, 2.2346E+03, 827.631, 556.033
6100018, 2.19126E+03, 828.313, 556.776
6100019, 2.14771E+03, 829.179, 557.616
6100020, 2.10424E+03, 830.223, 558.694
6100021, 2.06076E+03, 829.786, 562.844
6100022, 2.02091E+03, 830.018, 574.353
*CONNECTOR SECTION, ELSET=FASTENER_ELEMENTS
** AXIAL used to prevent overconstraints!
AXIAL,
*FASTENER, INTERACTION=F1, ELSET=FASTENER_ELEMENTS, PROPERTY=Fastener-Rigid,
 SEARCH RADIUS=10.0, NUMBER OF LAYERS=1, REFERENCE NODE SET=fastener_nset1
*FASTENER PROPERTY, NAME=Fastener-Rigid
1.0,
**
**  connection:  CABIN-BACK-PILLAR-OUTER-LEFT and CABIN-DOORJAMP-LEFT
**
*node, nset=fastener_nset2
6200001, 1.90848E+03, 715.209, 1.75702E+03
6200002, 1.90507E+03, 735.811, 1.7197E+03
6200003, 1.90094E+03, 755.164, 1.68022E+03
6200004, 1.89618E+03, 773.619, 1.64037E+03
6200005, 1.89256E+03, 790.95, 1.59986E+03
6200006, 1.88865E+03, 807.029, 1.55887E+03
6200007, 1.88463E+03, 822.294, 1.5176E+03
6200008, 1.88157E+03, 836.671, 1.47593E+03
6200009, 1.87858E+03, 850.094, 1.43396E+03
6200010, 1.87502E+03, 863.122, 1.39188E+03
6200011, 1.87151E+03, 874.93, 1.34939E+03
6200012, 1.87015E+03, 885.673, 1.30647E+03
6200013, 1.86969E+03, 894.525, 1.26314E+03
6200014, 1.8684E+03, 905.757, 1.22288E+03
6200015, 1.86704E+03, 919.716, 1.18563E+03
6200016, 1.86662E+03, 930.264, 1.14725E+03
6200017, 1.86533E+03, 940.279, 1.10881E+03
6200018, 1.86525E+03, 947.236, 1.06705E+03
6200019, 1.86625E+03, 951.058, 1.02199E+03
6200020, 1.86589E+03, 954.492, 976.898
** ... 6 like lines cut
*FASTENER, INTERACTION=F2, ELSET=FASTENER_ELEMENTS, PROPERTY=Fastener-Rigid,
 SEARCH RADIUS=10.0, NUMBER OF LAYERS=1, REFERENCE NODE SET=fastener_nset2
**
**  connection:  DOOR-OUTER-LEFT and DOOR-INNER-LEFT
**
*SURFACE, NAME=SURFACE-DOOR-OUTER-LEFT
DOOR-OUTER-LEFT, SNEG
*SURFACE, NAME=SURFACE-DOOR-INNER-LEFT-SNEG
DOOR-INNER-LEFT, SNEG
*TIE, NAME=TIE1, TYPE=NODE TO SURFACE, POSITION TOLERANCE=45.0, ADJUST=NO
SURFACE-DOOR-OUTER-LEFT, SURFACE-DOOR-INNER-LEFT-SNEG
**
**  connection:  DOOR-REINF-LEFT and DOOR-INNER-LEFT
**
*SURFACE, NAME=SURFACE-DOOR-REINF-LEFT
DOOR-REINF-LEFT, SPOS
*TIE, NAME=TIE2, TYPE=NODE TO SURFACE, POSITION TOLERANCE=15.0, ADJUST=NO
SURFACE-DOOR-REINF-LEFT, SURFACE-DOOR-INNER-LEFT-SNEG
**
**  connection:  DOOR-TOPBAR-INN-LEFT and DOOR-INNER-LEFT
**
*SURFACE, NAME=SURFACE-DOOR-TOPBAR-INN-LEFT
DOOR-TOPBAR-INN-LEFT, SNEG
*TIE, NAME=TIE3, TYPE=NODE TO SURFACE, POSITION TOLERANCE=50.0, ADJUST=NO
SURFACE-DOOR-TOPBAR-INN-LEFT, SURFACE-DOOR-INNER-LEFT-SNEG
**
**  connection:  DOOR-TOPBAR-OUT-LEFT and DOOR-OUTER-LEFT
**
*SURFACE, NAME=SURFACE-DOOR-TOPBAR-OUT-LEFT
DOOR-TOPBAR-OUT-LEFT, SNEG
*TIE, NAME=TIE4, TYPE=NODE TO SURFACE, POSITION TOLERANCE=50.0, ADJUST=NO
SURFACE-DOOR-TOPBAR-OUT-LEFT, SURFACE-DOOR-OUTER-LEFT
**
**  connection:  DOOR-LOCK-LEFT and DOOR-INNER-LEFT
**
*ELSET, ELSET=DOOR-LOCK-LEFT-IN, GENERATE
832459,832462,1
832467,832470,1
832475,832478,1
832483,832486,1
832491,832494,1
832499,832502,1
832507,832510,1
832515,832518,1
832523,832526,1
832531,832534,1
832539,832542,1
832547,832550,1
832555,832558,1
832563,832566,1
832571,832574,1
832579,832582,1
832587,832590,1
832595,832598,1
832603,832606,1
832611,832614,1
*SURFACE, NAME=SURFACE-DOOR-LOCK-LEFT
DOOR-LOCK-LEFT-IN, S1
*TIE, NAME=TIE5, TYPE=NODE TO SURFACE, POSITION TOLERANCE=20.0, ADJUST=NO
SURFACE-DOOR-LOCK-LEFT, SURFACE-DOOR-INNER-LEFT-SNEG
**
**  connection:  DOOR-SIBDEB-MTG1-LEFT and DOOR-INNER-LEFT
**
*NSET, NSET=MTG1
  33000,  33001,  33002,  33003,  33004,  33005,  33006,  33007,  33008,  33009,  33010,  33011,  33012,  33013,  33014,  33015
  33016,  33017,  33018,  33019,  33020,  33021,  33022,  33023,  33024,  33025,  33026,  33027,  33028,  33029,  33030,  33031
  33032,  33033,  33034,  33035,  33036,  33037,  33038,  33039,  33040,  33041,  33042,  33043,  33044,  33045,  33046,  33047
  33048,  33049,  33050,  33051,  33052,  33053,  33054,  33055,  33056,  33057,  33058,9005808,9005809,9005810,9005811,9005812
9005813,9005814,9005815,9005816,9005817,9005818,9005819,9005820,9005821,9005822,9005823,9005824,9005825,9005826,9005827,9005828
9005829,9005830,9005831,9005832,9005833,9005834,9005835,9005836,9005837,9005838,9005839,9005840,9005841,9005842,9005843,9005844
9005845,9005846,9005847,9005848,9005849,9005850,9005851,9005852,9005853,9005854,9005855,9005856,9005857,9005858,9005859,9005860
9005861,9005862,9005863,9005864,9005865,9005866,9005867,9005868,9005869,9005870,9005871,9005872,9005873,9005874,9005875,9005876
9005877,9005878,9005879,9005880,9005881,9005882,9005883,9005884,9005885,9005886,9005887,9005888,9005889,9005890,9005891,9005892
9005893,9005894,9005895,9005896,9005897,9005898,9005899,9005900,9005901,9005902,9005903,9005904,9005905,9005906,9005907,9005908
9005909,9005910,9005911,9005912,9012336,9012337,9012338,9012339,9012340,9012341,9012342,9012343,9012344,9012345,9012346,9012347
9012348,9012349,9012350,9012351,9012352,9012353,9012354,9012355,9012356,9012357,9012358,9012359,9012360,9012361,9012362,9012363
9012364,9012365,9012366,9012367,9012368,9012369,9012370,9012371,9012372
*SURFACE, NAME=SURFACE-DOOR-SIBDEB-MTG1-LEFT, TYPE=NODE
MTG1,
*TIE, NAME=TIE6, TYPE=NODE TO SURFACE, POSITION TOLERANCE=160.0, ADJUST=NO
SURFACE-DOOR-SIBDEB-MTG1-LEFT, SURFACE-DOOR-INNER-LEFT-SNEG
**
**  connection:  DOOR-SIBDEB-MTG3-LEFT and DOOR-INNER-LEFT
**
*NSET, NSET=MTG3
  33118,  33119,  33120,  33121,  33122,  33123,  33124,  33125,  33126,  33127,  33128,  33129,  33130,  33131,  33132,  33133
  33134,  33135,  33136,  33137,  33138,  33139,  33140,  33141,  33142,  33143,  33144,  33145,  33146,  33147,  33148,  33149
  33150,  33151,  33152,  33153,  33154,  33155,  33156,  33157,  33158,  33159,  33160,  33161,  33162,  33163,  33164,  33165
  33166,  33167,  33168,  33169,  33170,  33171,  33172,  33173,  33174,  33175,  33176,  33177,  33178,  33179,  33180,  33181
  33182,  33183,  33184,  33185,  33186,  33187,  33188,9005913,9005914,9005915,9005916,9005917,9005918,9005919,9005920,9005921
9005922,9005923,9005924,9005925,9005926,9005927,9005928,9005929,9005930,9005931,9005932,9005933,9005934,9005935,9005936,9005937
9005938,9005939,9005940,9005941,9005942,9005943,9005944,9005945,9005946,9005947,9005948,9005949,9005950,9005951,9005952,9005953
9005954,9005955,9005956,9005957,9005958,9005959,9005960,9005961,9005962,9005963,9005964,9005965,9005966,9005967,9005968,9005969
9005970,9005971,9005972,9005973,9005974,9005975,9005976,9005977,9005978,9005979,9005980,9005981,9005982,9005983,9005984,9005985
9005986,9005987,9005988,9005989,9005990,9005991,9005992,9005993,9005994,9005995,9005996,9005997,9005998,9005999,9006000,9006001
9006002,9006003,9006004,9006005,9006006,9006007,9006008,9006009,9006010,9006011,9006012,9006013,9006014,9006015,9006016,9006017
9006018,9006019,9006020,9006021,9006022,9006023,9006024,9006025,9006026,9006027,9006028,9006029,9006030,9006031,9006032,9006033
9006034,9006035,9006036,9006037,9006038,9006039,9006040,9006041,9006042,9012373,9012374,9012375,9012376,9012377,9012378,9012379
9012380,9012381,9012382,9012383,9012384,9012385,9012386,9012387,9012388,9012389,9012390,9012391,9012392,9012393,9012394,9012395
9012396,9012397,9012398,9012399,9012400,9012401,9012402,9012403,9012404,9012405,9012406,9012407,9012408,9012409,9012410,9012411
9012412,9012413,9012414,9012415,9012416,9012417,9012418,9012419,9012420,9012421,9012422,9012423,9012424,9012425,9012426,9012427
9012428,
*SURFACE, NAME=SURFACE-DOOR-SIBDEB-MTG3-LEFT, TYPE=NODE
MTG3,
*TIE, NAME=TIE7, TYPE=NODE TO SURFACE, POSITION TOLERANCE=160.0, ADJUST=NO
SURFACE-DOOR-SIBDEB-MTG3-LEFT, SURFACE-DOOR-INNER-LEFT-SNEG
**
**  connection:  DOOR-WINDOWWG-LEFT and DOOR-INNER-LEFT
**
*NSET, NSET=NSET-DOOR-WINDOWWG-LEFT
  39000,  39001,  39002,  39003,  39004,  39005,  39006,  39007,  39008,  39009,  39010,  39011,  39012,  39013,  39014,  39015
  39016,  39017,  39018,  39019,  39020,  39021,  39022,  39023,  39024,  39025,  39026,  39027,  39028,  39029,  39030,  39031
  39032,  39033,  39034,  39035,  39036,  39037,  39038,  39039,  39040,  39041,  39042,  39043,  39044,  39045,  39046,  39047
9007418,9007419,9007420,9007421,9007422,9007423,9007424,9007425,9007426,9007427,9007428,9007429,9007430,9007431,9007432,9007433
9007434,9007435,9007436,9007437,9007438,9007439,9007440,9007441,9007442,9007443,9007444,9007445,9007446,9007447,9007448,9007449
9007450,9007451,9007452,9007453,9007454,9007455,9007456,9007457,9007458,9007459,9007460,9007461,9007462,9007463,9007464,9007465
9007466,9007467,9007468,9007469,9007470,9007471,9007472,9007473,9007474,9007475,9007476,9007477,9007478,9007479,9007480,9007481
9007482,9007483,9007484,9007485,9007486,9007487,9007488,9007489,9007490,9007491,9007492,9007493,9013057,9013058,9013059,9013060
9013061,9013062,9013063,9013064,9013065,9013066,9013067,9013068,9013069,9013070,9013071,9013072,9013073,9013074,9013075,9013076
9013077,9013078,9013079,9013080,9013081,9013082,9013083,9013084,9013085,9013086
*SURFACE, NAME=SURFACE-DOOR-WINDOWWG-LEFT, TYPE=NODE
NSET-DOOR-WINDOWWG-LEFT,
*TIE, NAME=TIE8, TYPE=NODE TO SURFACE, POSITION TOLERANCE=130.0, ADJUST=NO
SURFACE-DOOR-WINDOWWG-LEFT, SURFACE-DOOR-INNER-LEFT-SNEG
**
**  connection:  DOOR-SIDEB-LEFT and DOOR-SIDEB-ST1-LEFT
**
*SURFACE, NAME=SURFACE-DOOR-SIDEB-LEFT
DOOR-SIDEB-LEFT,
*SURFACE, NAME=SURFACE-DOOR-SIDEB-ST1-LEFT
DOOR-SIDEB-ST1-LEFT,
*TIE, NAME=TIE9, TYPE=NODE TO SURFACE, POSITION TOLERANCE=5.0, ADJUST=NO
SURFACE-DOOR-SIDEB-LEFT, SURFACE-DOOR-SIDEB-ST1-LEFT
**
**  connection:  DOOR-SIDEB-LEFT and DOOR-SIDEBAR-REINF-LEFT
**
*SURFACE, NAME=SURFACE-DOOR-SIDEBAR-REINF-LEFT
DOOR-SIDEBAR-REINF-LEFT,
*TIE, NAME=TIE10, TYPE=NODE TO SURFACE, POSITION TOLERANCE=5.0, ADJUST=NO
SURFACE-DOOR-SIDEB-LEFT, SURFACE-DOOR-SIDEBAR-REINF-LEFT
**
**  connection:  DOOR-SIDEB-LEFT and DOOR-SIDEB-MTG1-LEFT
**
*SURFACE, NAME=SURFACE-DOOR-SIDEB-MTG1-LEFT
DOOR-SIDEB-MTG1-LEFT,
*TIE, NAME=TIE11, TYPE=NODE TO SURFACE, POSITION TOLERANCE=5.0, ADJUST=NO
SURFACE-DOOR-SIDEB-LEFT, SURFACE-DOOR-SIDEB-MTG1-LEFT
**
**  connection:  DOOR-SIDEB-LEFT and DOOR-SIDEB-MTG3-LEFT
**
*SURFACE, NAME=SURFACE-DOOR-SIDEB-MTG3-LEFT
DOOR-SIDEB-MTG3-LEFT,
*TIE, NAME=TIE12, TYPE=NODE TO SURFACE, POSITION TOLERANCE=5.0, ADJUST=NO
SURFACE-DOOR-SIDEB-LEFT, SURFACE-DOOR-SIDEB-MTG3-LEFT
**
**  connection:  CABIN-DOORJAMP-LEFT and CABIN-D-HINGE-UP-LEFT
**
*SURFACE, NAME=SURFACE-CABIN-DOORJAMP-LEFT-SPOS
CABIN-DOORJAMP-LEFT
*SURFACE, NAME=SURFACE-CABIN-D-HINGE-UP-LEFT
CABIN-D-HINGE-UP-LEFT
*TIE, NAME=TIE13, TYPE=NODE TO SURFACE, POSITION TOLERANCE=5.0, ADJUST=NO
SURFACE-CABIN-DOORJAMP-LEFT-SPOS, SURFACE-CABIN-D-HINGE-UP-LEFT
**
**  connection:  CABIN-DOORJAMP-LEFT and CABIN-D-HINGE-LOW-LEFT
**
*SURFACE, NAME=SURFACE-CABIN-D-HINGE-LOW-LEFT
CABIN-D-HINGE-LOW-LEFT,
*TIE, NAME=TIE14, TYPE=NODE TO SURFACE, POSITION TOLERANCE=5.0, ADJUST=NO
SURFACE-CABIN-DOORJAMP-LEFT-SPOS, SURFACE-CABIN-D-HINGE-LOW-LEFT
**
**  connection:  DOOR-INNER-LEFT and DOOR-HINGE-UP-LEFT
**
*SURFACE, NAME=SURFACE-DOOR-INNER-LEFT-SPOS
DOOR-INNER-LEFT,
*SURFACE, NAME=SURFACE-DOOR-HINGE-UP-LEFT
DOOR-HINGE-UP-LEFT,
*TIE, NAME=TIE15, TYPE=NODE TO SURFACE, POSITION TOLERANCE=5.0, ADJUST=NO
SURFACE-DOOR-INNER-LEFT-SPOS, SURFACE-DOOR-HINGE-UP-LEFT
**
**  connection:  DOOR-INNER-LEFT and DOOR-HINGE-LOW-LEFT
**
*SURFACE, NAME=SURFACE-DOOR-HINGE-LOW-LEFT
DOOR-HINGE-LOW-LEFT,
*TIE, NAME=TIE16, TYPE=NODE TO SURFACE, POSITION TOLERANCE=5.0, ADJUST=NO
SURFACE-DOOR-INNER-LEFT-SPOS, SURFACE-DOOR-HINGE-LOW-LEFT
********************************************************************************
**
**  Submodel definitions
**
*NSET, NSET=NSET-CABIN-BOTTOM-LEFT, GENERATE
8000,8315,1
9000678,9001274,1
9009393,9009666,1
*NSET, NSET=NSET-CABIN-DOORJAMP-LEFT, GENERATE
10500,11358,1
9001275,9002901,1
9009856,9010581,1
*NSET, NSET=NSET-CABIN-BACK-PILLAR-OUTER-LEFT, GENERATE
3200,3556,1
9000013,9000677,1
9009084,9009392,1
**
********************************************************************************
** Traditional submodeling interface: 
** ADD DRIVEN BOUNDARY NODES DEFINITION (*SUBMODEL)
**
**
********************************************************************************
**
*NSET, NSET=DRIVEN_NODES_OUT-CABIN-DOORJAMP-LEFT
10887, 10886, 10885, 10884, 10883, 10882
10828, 10827, 10826, 10825, 10824, 10823, 10822
*NSET, NSET=DRIVEN_NODES_OUT-CABIN-BOTTOM-LEFT
8042, 8047, 8104, 8105, 8106, 8107, 8108, 8115
8044, 8048, 8109, 8110, 8111, 8112, 8113, 8117
*NSET, NSET=QA_TEST
DRIVEN_NODES_OUT-CABIN-DOORJAMP-LEFT, DRIVEN_NODES_OUT-CABIN-DOORJAMP-LEFT
**
** Loading: velocity 58 km/h = 16111.12 mm/s
**
*INITIAL CONDITIONS, TYPE=VELOCITY
door_nodes,2,16111.12
door_frame_nodes,2,16111.12
***
*STEP
*DYNAMIC, EXPLICIT, ELEMENT BY ELEMENT
,0.02
*VARIABLE MASS SCALING, TYPE=BELOW MIN, DT=0.6E-6, FREQUENCY=5
**
********************************************************************************
** Traditional submodeling interface: 
** ADD DRIVEN VARIABLES DEFINITION (*BOUNDARY)
**
** Field import interface:
** ADD DRIVEN VARIABLES DEFINITION (*FIELD IMPORT, *EXTERNAL FIELD)
**
********************************************************************************
**
*CONTACT
*CONTACT INCLUSIONS, ALL EXTERIOR
*CONTACT EXCLUSIONS
SURFACE-CABIN-DOORJAMP-LEFT-SPOS, DOOR-INNER-LEFT-SURF
SURFACE-CABIN-DOORJAMP-LEFT-SPOS, CABIN-BACK-PILLAR-OUTER-LEFT-SURF
,CABIN-D-HINGE-LOW-LT
,CABIN-D-HINGE-UP-LT
**
*OUTPUT, FIELD, NUMBER INTERVAL=10
*NODE OUTPUT
UT, VT, AT
*ELEMENT OUTPUT
MISES, PEEQ
*OUTPUT, HISTORY
*ENERGY OUTPUT
ETOTAL, ALLKE, ALLIE, ALLAE, ALLPD
**
*OUTPUT, HISTORY, TIME INTERVAL=0.16E-3
*NODE OUTPUT, NSET=DRIVEN_NODES_OUT-CABIN-DOORJAMP-LEFT
U1, U2, U3
*NODE OUTPUT, NSET=DRIVEN_NODES_OUT-CABIN-BOTTOM-LEFT
U1, U2, U3
*OUTPUT, HISTORY, TIME INTERVAL=0.0001
*NODE OUTPUT, NSET=QA_TEST
U1, U2, U3
**
*END STEP
