*HEADING
**
** Usage level model definition
**
** Units mm, MPa, sec, Celsius
**
*Part, name=mount
*NODE,NSET=NALL
   1451,   7.86659002,   9.27604008,  -1.27855003
   1452,   8.09144974,   9.27604008,  -1.27855003
   1453,   8.31632042,   9.27604008,  -1.27855003
   1454,   8.54115963,   9.27604008,  -1.27855003
   1455,   8.75067043,   9.27604008,  -1.27855003
   1456,   8.95252037,   9.27604008,  -1.27855003
   1457,   9.15544033,   9.27604008,  -1.27855003
   1483,   7.86659002,   9.58084011,  -1.27855003
   1484,    8.0914402,   9.58084011,  -1.27855003
   1485,   8.31630993,   9.58084011,  -1.27855003
   1486,   8.54115963,   9.58084011,  -1.27855003
   1487,   8.75067043,   9.58084011,  -1.27855003
   1488,   8.95250988,   9.58084011,  -1.27855003
   1489,   9.15544033,   9.58084011,  -1.27855003
   1596,   6.02486992,   10.8639002,  -1.27849996
   1597,   6.32966995,   10.8639002,  -1.27849996
   1629,   6.02485991,   11.0888004,  -1.27849996
   1630,   6.32966995,   11.0888004,  -1.27849996
   1652,   6.02485991,   11.3135996,  -1.27849996
   1653,   6.32966995,   11.3135996,  -1.27849996
** ... 4660 like lines cut
**
**  ELEMENT DEFINITIONS
**
*ELEMENT, TYPE=C3D6, ELSET=SOLDERF
 6648,    9186,    9185,    9413,    9211,    9210,    9415
 6649,    9211,    9210,    9415,    9236,    9235,    9417
 6650,    9236,    9235,    9417,    9261,    9260,    9419
 6651,    9261,    9260,    9419,    9286,    9285,    9420
 6652,    9402,    9407,    9437,    9403,    9408,    9438
 6653,    9403,    9408,    9438,    9404,    9409,    9439
 6654,    9404,    9409,    9439,    9405,    9410,    9440
 6655,    9405,    9410,    9440,    9406,    9411,    9441
 6832,    9413,    9412,    9613,    9415,    9414,    9615
 6833,    9415,    9414,    9615,    9417,    9416,    9617
 6834,    9417,    9416,    9617,    9419,    9418,    9619
 6835,    9419,    9418,    9619,    9420,    9426,    9621
 6836,    9432,    9437,    9627,    9433,    9438,    9628
 6837,    9433,    9438,    9628,    9434,    9439,    9629
 6838,    9434,    9439,    9629,    9435,    9440,    9630
 6839,    9435,    9440,    9630,    9436,    9441,    9631
 6984,    9613,    9632,    9822,    9615,    9633,    9823
 6985,    9615,    9633,    9823,    9617,    9634,    9824
 6986,    9617,    9634,    9824,    9619,    9635,    9825
 6987,    9619,    9635,    9825,    9621,    9636,    9826
** ... 60 like lines cut
*ELEMENT, TYPE=C3D8R, ELSET=PACKAGE
 5651, 7507, 7508, 7531, 7530, 7973, 7974, 7997, 7996
 5702, 7551, 7552, 7575, 7574, 8017, 8018, 8041, 8040
*ELEMENT, TYPE=C3D8I, ELSET=BOARD
 1526, 1451, 1452, 1484, 1483, 2380, 2381, 2413, 2412
 1527, 1452, 1453, 1485, 1484, 2381, 2382, 2414, 2413
 1528, 1453, 1454, 1486, 1485, 2382, 2383, 2415, 2414
 1529, 1454, 1455, 1487, 1486, 2383, 2384, 2416, 2415
 1530, 1455, 1456, 1488, 1487, 2384, 2385, 2417, 2416
 1531, 1456, 1457, 1489, 1488, 2385, 2386, 2418, 2417
 1689, 1596, 1597, 1630, 1629, 2525, 2526, 2559, 2558
 1719, 1629, 1630, 1653, 1652, 2558, 2559, 2582, 2581
 1745, 1652, 1653, 1682, 1681, 2581, 2582, 2611, 2610
 1774, 1681, 1682, 1705, 1704, 2610, 2611, 2634, 2633
 1800, 1704, 1705, 1736, 1735, 2633, 2634, 2665, 2664
 1829, 1735, 1736, 1759, 1758, 2664, 2665, 2688, 2687
*ELEMENT, TYPE=C3D8R, ELSET=SOLDERF
 6656, 9180, 9181, 9206, 9205, 9452, 9442, 9444, 9453
 6657, 9181, 9182, 9207, 9206, 9442, 9443, 9445, 9444
 6658, 9182, 9183, 9208, 9207, 9443, 9421, 9422, 9445
 6659, 9183, 9184, 9209, 9208, 9421, 9412, 9414, 9422
 6660, 9184, 9185, 9210, 9209, 9412, 9413, 9415, 9414
 6661, 9207, 9208, 9233, 9232, 9445, 9422, 9423, 9447
 6662, 9208, 9209, 9234, 9233, 9422, 9414, 9416, 9423
 6663, 9209, 9210, 9235, 9234, 9414, 9415, 9417, 9416
 6664, 9234, 9235, 9260, 9259, 9416, 9417, 9419, 9418
 6665, 9259, 9260, 9285, 9284, 9418, 9419, 9420, 9426
 6666, 9205, 9206, 9231, 9230, 9453, 9444, 9446, 9454
 6667, 9206, 9207, 9232, 9231, 9444, 9445, 9447, 9446
 6668, 9230, 9231, 9256, 9255, 9454, 9446, 9448, 9455
 6669, 9231, 9232, 9257, 9256, 9446, 9447, 9449, 9448
 6670, 9232, 9233, 9258, 9257, 9447, 9423, 9424, 9449
 6671, 9233, 9234, 9259, 9258, 9423, 9416, 9418, 9424
 6672, 9255, 9256, 9281, 9280, 9455, 9448, 9450, 9456
 6673, 9256, 9257, 9282, 9281, 9448, 9449, 9451, 9450
 6674, 9257, 9258, 9283, 9282, 9449, 9424, 9425, 9451
 6675, 9258, 9259, 9284, 9283, 9424, 9418, 9426, 9425
** ... 1036 like lines cut
*ELEMENT, TYPE=C3D8R, ELSET=LEADPADF
 6264, 8662, 8663, 8688, 8687, 8912, 8913, 8938, 8937
 6265, 8663, 8664, 8689, 8688, 8913, 8914, 8939, 8938
 6266, 8664, 8665, 8690, 8689, 8914, 8915, 8940, 8939
 6267, 8665, 8666, 8691, 8690, 8915, 8916, 8941, 8940
 6268, 8666, 8667, 8692, 8691, 8916, 8917, 8942, 8941
 6269, 8667, 8668, 8693, 8692, 8917, 8918, 8943, 8942
 6270, 8668, 8669, 8694, 8693, 8918, 8919, 8944, 8943
 6271, 8669, 8670, 8695, 8694, 8919, 8920, 8945, 8944
 6272, 8670, 8671, 8696, 8695, 8920, 8921, 8946, 8945
 6273, 8671, 8672, 8697, 8696, 8921, 8922, 8947, 8946
 6274, 8672, 8673, 8698, 8697, 8922, 8923, 8948, 8947
 6275, 8673, 8674, 8699, 8698, 8923, 8924, 8949, 8948
 6276, 8674, 8675, 8700, 8699, 8924, 8925, 8950, 8949
 6277, 8675, 8676, 8701, 8700, 8925, 8926, 8951, 8950
 6278, 8676, 8677, 8702, 8701, 8926, 8927, 8952, 8951
 6279, 8677, 8678, 8703, 8702, 8927, 8928, 8953, 8952
 6280, 8678, 8679, 8704, 8703, 8928, 8929, 8954, 8953
 6281, 8679, 8680, 8705, 8704, 8929, 8930, 8955, 8954
 6282, 8680, 8681, 8706, 8705, 8930, 8931, 8956, 8955
 6283, 8681, 8682, 8707, 8706, 8931, 8932, 8957, 8956
** ... 2028 like lines cut
**
** ELEMENT SET DEFINITIONS
**
** leadf
**
*ELSET, ELSET=LEADF
    7577,    7579,    7581,    7583,    7588,    7589,    7590,    7591,
    7592,    7593,    7594,    7595,    7596,    7597,    7598,    7599,
    7608,    7609,    7610,    7611,    7612,    7613,    7614,    7615,
    7617,    7619,    7621,    7623,    7628,    7629,    7630,    7631,
    7632,    7633,    7634,    7635,    7636,    7637,    7638,    7639,
    7648,    7649,    7650,    7651,    7652,    7653,    7654,    7655,
    7657,    7659,    7661,    7663,    7668,    7669,    7670,    7671,
    7696,    7698,    7700,    7702,    7704,    7705,    7706,    7707,
    7712,    7713,    7714,    7715,    7716,    7717,    7718,    7719,
    7720,    7721,    7722,    7723,    7724,    7725,    7726,    7727,
    7736,    7737,    7738,    7739,    7740,    7741,    7742,    7743,
    7745,    7747,    7749,    7751,    7756,    7757,    7758,    7759,
    7768,    7769,    7770,    7771,    7772,    7773,    7774,    7775,
    7776,    7777,    7778,    7779,    7780,    7781,    7782,    7783,
    7784,    7785,    7786,    7787,    7788,    7789,    7790,    7791,
    7792,    7793,    7794,    7795,    7796,    7797,    7798,    7799,
    7808,    7809,    7810,    7811,    7812,    7813,    7814,    7815,
    7840,    7841,    7842,    7843,    7844,    7845,    7846,    7847,
    7848,    7849,    7850,    7851,    7852,    7853,    7854,    7855,
    7856,    7857,    7858,    7859,    7860,    7861,    7862,    7863,
** ... 188 like lines cut
**
** padf
**
*ELSET, ELSET=PADF
    6264,    6265,    6266,    6267,    6268,    6269,    6270,    6271,
    6272,    6273,    6274,    6275,    6276,    6277,    6278,    6279,
    6280,    6281,    6282,    6283,    6284,    6285,    6286,    6287,
    6288,    6289,    6290,    6291,    6292,    6293,    6294,    6295,
    6296,    6297,    6298,    6299,    6300,    6301,    6302,    6303,
    6304,    6305,    6306,    6307,    6308,    6309,    6310,    6311,
    6312,    6313,    6314,    6315,    6316,    6317,    6318,    6319,
    6320,    6321,    6322,    6323,    6324,    6325,    6326,    6327,
    6328,    6329,    6330,    6331,    6332,    6333,    6334,    6335,
    6336,    6337,    6338,    6339,    6340,    6341,    6342,    6343,
    6344,    6345,    6346,    6347,    6348,    6349,    6350,    6351,
    6352,    6353,    6354,    6355,    6356,    6357,    6358,    6359,
    6360,    6361,    6362,    6363,    6364,    6365,    6366,    6367,
    6368,    6369,    6370,    6371,    6372,    6373,    6374,    6375,
    6376,    6377,    6378,    6379,    6380,    6381,    6382,    6383,
    6384,    6385,    6386,    6387,    6388,    6389,    6390,    6391,
    6392,    6393,    6394,    6395,    6396,    6397,    6398,    6399,
    6400,    6401,    6402,    6403,    6404,    6405,    6406,    6407,
    6408,    6409,    6410,    6411,    6412,    6413,    6414,    6415,
    6416,    6417,    6418,    6419,    6420,    6421,    6422,    6423,
** ... 28 like lines cut
**
** leadf1
**
*ELSET, ELSET=LEADF1
    7512,    7513,    7514,    7515,    7552,    7553,    7554,    7555,
    7560,    7561,    7562,    7563,    7568,    7569,    7570,    7571,
    7577,    7579,    7581,    7583,    7592,    7593,    7594,    7595,
    7608,    7609,    7610,    7611,    7617,    7619,    7621,    7623,
    7632,    7633,    7634,    7635,    7648,    7649,    7650,    7651,
    7657,    7659,    7661,    7663,    7680,    7681,    7682,    7683,
    7688,    7689,    7690,    7691,    7696,    7697,    7698,    7699,
    7700,    7701,    7702,    7703,    7712,    7713,    7714,    7715,
    7720,    7721,    7722,    7723,    7736,    7737,    7738,    7739,
    7745,    7747,    7749,    7751,    7768,    7769,    7770,    7771,
    7776,    7777,    7778,    7779,    7784,    7785,    7786,    7787,
    7792,    7793,    7794,    7795,    7800,    7801,    7802,    7803,
    7808,    7809,    7810,    7811,    7816,    7817,    7818,    7819,
    7840,    7841,    7842,    7843,    7848,    7849,    7850,    7851,
    7856,    7857,    7858,    7859,    7865,    7867,    7869,    7871,
    7880,    7881,    7882,    7883,    7888,    7889,    7890,    7891,
    7896,    7897,    7898,    7899,    7904,    7905,    7906,    7907,
    7912,    7913,    7914,    7915,    7920,    7921,    7922,    7923,
    7936,    7937,    7938,    7939,    7944,    7945,    7946,    7947,
    7952,    7953,    7954,    7955,    7960,    7961,    7962,    7963,
** ... 89 like lines cut
**
** padf1
**
*ELSET, ELSET=PADF1
    6264,    6265,    6266,    6267,    6268,    6269,    6270,    6271,
    6272,    6273,    6274,    6275,    6276,    6277,    6278,    6279,
    6280,    6281,    6282,    6283,    6284,    6285,    6286,    6287,
    6288,    6289,    6290,    6291,    6292,    6293,    6294,    6295,
    6296,    6297,    6298,    6299,    6300,    6301,    6302,    6303,
    6304,    6305,    6306,    6307,    6308,    6309,    6310,    6311,
    6312,    6313,    6314,    6315,    6316,    6317,    6318,    6319,
    6320,    6321,    6322,    6323,    6324,    6325,    6326,    6327,
    6328,    6329,    6330,    6331,    6332,    6333,    6334,    6335,
    6336,    6337,    6338,    6339,    6340,    6341,    6342,    6343,
    6344,    6345,    6346,    6347,    6348,    6349,    6350,    6351,
    6352,    6353,    6354,    6355,    6356,    6357,    6358,    6359,
    6456,    6457,    6458,    6459,    6460,    6461,    6462,    6463,
    6464,    6465,    6466,    6467,    6468,    6469,    6470,    6471,
    6472,    6473,    6474,    6475,    6476,    6477,    6478,    6479,
    6480,    6481,    6482,    6483,    6484,    6485,    6486,    6487,
    6488,    6489,    6490,    6491,    6492,    6493,    6494,    6495,
    6496,    6497,    6498,    6499,    6500,    6501,    6502,    6503,
    6504,    6505,    6506,    6507,    6508,    6509,    6510,    6511,
    6512,    6513,    6514,    6515,    6516,    6517,    6518,    6519,
** ... 4 like lines cut
**
** solderf1
**
*ELSET, ELSET=SOLDERF1
    6648,    6649,    6650,    6651,    6656,    6657,    6658,    6659,
    6660,    6661,    6662,    6663,    6664,    6665,    6666,    6667,
    6668,    6669,    6670,    6671,    6672,    6673,    6674,    6675,
    6696,    6697,    6698,    6699,    6700,    6701,    6702,    6703,
    6704,    6705,    6706,    6707,    6708,    6709,    6710,    6715,
    6716,    6717,    6718,    6719,    6736,    6737,    6738,    6739,
    6744,    6745,    6746,    6747,    6752,    6753,    6754,    6755,
    6760,    6761,    6762,    6763,    6764,    6765,    6766,    6767,
    6768,    6769,    6770,    6771,    6772,    6773,    6774,    6775,
    6792,    6793,    6794,    6795,    6800,    6801,    6802,    6803,
    6808,    6809,    6810,    6811,    6816,    6817,    6818,    6819,
    6824,    6825,    6826,    6827,    6832,    6833,    6834,    6835,
    6840,    6841,    6842,    6843,    6848,    6849,    6850,    6851,
    6856,    6857,    6858,    6859,    6864,    6865,    6866,    6867,
    6868,    6869,    6870,    6871,    6880,    6881,    6882,    6883,
    6888,    6889,    6890,    6891,    6896,    6897,    6898,    6899,
    6904,    6905,    6906,    6907,    6912,    6913,    6914,    6915,
    6920,    6921,    6922,    6923,    6928,    6929,    6930,    6931,
    6936,    6937,    6938,    6939,    6944,    6945,    6946,    6947,
    6952,    6953,    6954,    6955,    6960,    6961,    6962,    6963,
** ... 50 like lines cut
**
** leadf2
**
*ELSET, ELSET=LEADF2
    7588,    7589,    7590,    7591,    7596,    7597,    7598,    7599,
    7612,    7613,    7614,    7615,    7628,    7629,    7630,    7631,
    7636,    7637,    7638,    7639,    7652,    7653,    7654,    7655,
    7668,    7669,    7670,    7671,    7704,    7705,    7706,    7707,
    7716,    7717,    7718,    7719,    7724,    7725,    7726,    7727,
    7740,    7741,    7742,    7743,    7756,    7757,    7758,    7759,
    7772,    7773,    7774,    7775,    7780,    7781,    7782,    7783,
    7788,    7789,    7790,    7791,    7796,    7797,    7798,    7799,
    7812,    7813,    7814,    7815,    7844,    7845,    7846,    7847,
    7852,    7853,    7854,    7855,    7860,    7861,    7862,    7863,
    7876,    7877,    7878,    7879,    7884,    7885,    7886,    7887,
    7892,    7893,    7894,    7895,    7900,    7901,    7902,    7903,
    7908,    7909,    7910,    7911,    7916,    7917,    7918,    7919,
    7940,    7941,    7942,    7943,    7948,    7949,    7950,    7951,
    7956,    7957,    7958,    7959,    7964,    7965,    7966,    7967,
    7972,    7973,    7974,    7975,    7980,    7981,    7982,    7983,
    7988,    7989,    7990,    7991,    7996,    7997,    7998,    7999,
    8020,    8021,    8022,    8023,    8028,    8029,    8030,    8031,
    8036,    8037,    8038,    8039,    8044,    8045,    8046,    8047,
    8052,    8053,    8054,    8055,    8060,    8061,    8062,    8063,
** ... 84 like lines cut
**
** padf2
**
*ELSET, ELSET=PADF2
    6360,    6361,    6362,    6363,    6364,    6365,    6366,    6367,
    6368,    6369,    6370,    6371,    6372,    6373,    6374,    6375,
    6376,    6377,    6378,    6379,    6380,    6381,    6382,    6383,
    6384,    6385,    6386,    6387,    6388,    6389,    6390,    6391,
    6392,    6393,    6394,    6395,    6396,    6397,    6398,    6399,
    6400,    6401,    6402,    6403,    6404,    6405,    6406,    6407,
    6408,    6409,    6410,    6411,    6412,    6413,    6414,    6415,
    6416,    6417,    6418,    6419,    6420,    6421,    6422,    6423,
    6424,    6425,    6426,    6427,    6428,    6429,    6430,    6431,
    6432,    6433,    6434,    6435,    6436,    6437,    6438,    6439,
    6440,    6441,    6442,    6443,    6444,    6445,    6446,    6447,
    6448,    6449,    6450,    6451,    6452,    6453,    6454,    6455,
    6552,    6553,    6554,    6555,    6556,    6557,    6558,    6559,
    6560,    6561,    6562,    6563,    6564,    6565,    6566,    6567,
    6568,    6569,    6570,    6571,    6572,    6573,    6574,    6575,
    6576,    6577,    6578,    6579,    6580,    6581,    6582,    6583,
    6584,    6585,    6586,    6587,    6588,    6589,    6590,    6591,
    6592,    6593,    6594,    6595,    6596,    6597,    6598,    6599,
    6600,    6601,    6602,    6603,    6604,    6605,    6606,    6607,
    6608,    6609,    6610,    6611,    6612,    6613,    6614,    6615,
** ... 4 like lines cut
**
** solderf2
**
*ELSET, ELSET=SOLDERF2
    6652,    6653,    6654,    6655,    6676,    6677,    6678,    6679,
    6680,    6681,    6682,    6683,    6684,    6685,    6686,    6687,
    6688,    6689,    6690,    6691,    6692,    6693,    6694,    6695,
    6711,    6712,    6713,    6714,    6720,    6721,    6722,    6723,
    6724,    6725,    6726,    6727,    6728,    6729,    6730,    6731,
    6732,    6733,    6734,    6735,    6740,    6741,    6742,    6743,
    6748,    6749,    6750,    6751,    6756,    6757,    6758,    6759,
    6776,    6777,    6778,    6779,    6780,    6781,    6782,    6783,
    6784,    6785,    6786,    6787,    6788,    6789,    6790,    6791,
    6796,    6797,    6798,    6799,    6804,    6805,    6806,    6807,
    6812,    6813,    6814,    6815,    6820,    6821,    6822,    6823,
    6828,    6829,    6830,    6831,    6836,    6837,    6838,    6839,
    6844,    6845,    6846,    6847,    6852,    6853,    6854,    6855,
    6860,    6861,    6862,    6863,    6872,    6873,    6874,    6875,
    6876,    6877,    6878,    6879,    6884,    6885,    6886,    6887,
    6892,    6893,    6894,    6895,    6900,    6901,    6902,    6903,
    6908,    6909,    6910,    6911,    6916,    6917,    6918,    6919,
    6924,    6925,    6926,    6927,    6932,    6933,    6934,    6935,
    6940,    6941,    6942,    6943,    6948,    6949,    6950,    6951,
    6956,    6957,    6958,    6959,    6964,    6965,    6966,    6967,
** ... 50 like lines cut
**
** ceeq2
**
*ELSET, ELSET=CEEQ2
    7316,    7317,    7318,    7319,    7324,    7325,    7326,    7327,
    7428,    7429,    7430,    7431,    7436,    7437,    7438,    7439,
    7932,    7933,    7934,    7935,   10013,   10014,   10015,   10016,
   10017,   10018,   10019,   10020,   10021,   10022,   10023,   10024,
   10025,   10026,    10027
**
** ceeq1
**
*ELSET, ELSET=CEEQ1
    7312,    7313,    7314,    7315,    7320,    7321,    7322,    7323,
    7424,    7425,    7426,    7427,    7432,    7433,    7434,    7435,
    7928,    7929,    7930,    7931,    9448,    9449,    9450,   10001,
   10002,   10003,   10004,   10005,   10006,   10007,   10008,   10009,
   10010,   10011,    10012
*ELSET,ELSET=ELMON
7435,7439
*ELSET,ELSET=LEAD
LEADF,
*ELSET,ELSET=LEG1
LEADF1,PADF1,SOLDERF1
*ELSET,ELSET=LEG2
LEADF2,PADF2,SOLDERF2
*ELSET,ELSET=PAD
PADF,
*ELSET,ELSET=SOLDER
SOLDERF,
*ELSET,ELSET=SPACK1
5651, 
*ELSET,ELSET=SPACK2
5702, 
*ELSET,ELSET=SBOARD1,GEN
1526,1531
*ELSET,ELSET=SBOARD2
1689,1719,1745,1774,1800,1829
*NSET, NSET=NPAD1, GENERATE
 8662, 8786, 1
**
*NSET, NSET=NPAD2, GENERATE
 8787, 8911, 1
**
*NSET, NSET=NLEAD1, GENERATE
12452, 12504, 13
12652, 12704, 13
12822, 12874, 13
12982, 13034, 13
13132, 13184, 13
**
*NSET, NSET=NLEAD2, GENERATE
12517, 12521, 1
12717, 12721, 1
12887, 12891, 1
13047, 13051, 1
13197, 13201, 1
**
*NSET,NSET=SBOARD1,GEN
1483,1489,1
1451,1457,1
2412,2418,1
2380,2386,1
*NSET,NSET=SBOARD2
2525,2526,2558,2559,2581,2582,2610,2611,2633,2634,2664,2665,2687,2688
1596,1597,1629,1630,1652,1653,1681,1682,1704,1705,1735,1736,1758,1759
*NSET,NSET=SPACK1
7531,7530,7507,7508,7997,7996,7973,7974
*NSET,NSET=SPACK2
7574,7575,7551,7552,8040,8041,8017,8018
*NSET,NSET=RETAINED
SBOARD1,SBOARD2,SPACK1,SPACK2
*NSET,NSET=NTLEAD,GEN
8022,8038,2
13197,13201,4
13132,13184,52
*NSET,NSET=NBLEAD,GEN
5147,5163,2
11002,11006,4
11007,11011,4
*NSET,NSET=NMON
12799,10309,11249,10061
**
**ELEMENT PROPERTIES
**
*ORIENTATION,NAME=DEFAULT
1,0,0,0,1,0
3,0
**
*SOLID SECTION, ELSET=SOLDER, MATERIAL=DBL_POWER_SOLDER
**
*SOLID SECTION, ELSET=LEAD, MATERIAL=LEAD
**
*SOLID SECTION, ELSET=PAD, MATERIAL=PAD
**
*SOLID SECTION, ELSET=PACKAGE, MATERIAL=PACKAGE
**
*SOLID SECTION, ELSET=BOARD, MATERIAL=BOARD, ORIENTATION=DEFAULT
**
**  surfaceS
**
*surface,NAME=SPACK1
SPACK1,S4
*surface,NAME=SPACK2
SPACK2,S5
*surface,NAME=SBOARD1
SBOARD1,S2
*surface,NAME=SBOARD2
SBOARD2,S2
*surface,type=node,NAME=NLEAD1
NLEAD1,
*surface,type=node,NAME=NLEAD2
NLEAD2,
*surface,type=node,NAME=NPAD1
NPAD1,
*surface,type=node,NAME=NPAD2
NPAD2,
*NSET, NSET=CHPBRD
1451,1452,1453,1454,1455,1456,1457,1483,1484,1485,1486,1487,
1488,1489,1596,1597,1629,1630,1652,1653,1681,1682,1704,1705,
1735,1736,1758,1759,2380,2381,2382,2383,2384,2385,2386,2412,
2413,2414,2415,2416,2417,2418,2525,2526,2558,2559,2581,2582,
2610,2611,2633,2634,2664,2665,2687,2688,7507,7508,7530,7531,
7551,7552,7574,7575,7973,7974,7996,7997,8017,8018,8040,8041
**
*End Part
**
*Assembly, name=Assembly
**  
*Instance, name=mount-1, part=mount
*End Instance
**
*End Assembly
**
** fr4
**
*MATERIAL,NAME=BOARD
**
*ELASTIC,TYPE=ENGINEERING CONSTANTS
15031,6895,15031,.241,.159,.497,2103,2758
2103, 
*EXPANSION,TYPE=ORTHO,ZERO=0.0
20.6E-6,20.6E-6,68.3E-6
**
** eutectic solder (63Sn/37Pb)
**
*PHYSICAL CONSTANTS, ABSOLUTE ZERO=-273
*MATERIAL,NAME=DBL_POWER_SOLDER
*ELASTIC
31976,0.4,0.
20976,0.4,125.
*EXPANSION,ZERO=0.0
21E-6,
*CREEP,LAW=DOUBLE POWER
1.7e12, 5413., 3., 8.9e24, 5413., 7., 25.e3
**
** kovar
**
*MATERIAL,NAME=LEAD 
*ELASTIC
138034,0.3
*EXPANSION,ZERO=0.0
5.87E-6, 
**
** component (package) - alumina
**
*MATERIAL,NAME=PACKAGE
*ELASTIC
299992,0.22
*EXPANSION,ZERO=0.0
7.1E-6, 
**
** copper
**
*MATERIAL,NAME=PAD
*ELASTIC
128933,0.345
*EXPANSION,ZERO=0.0
16.7E-6, 
*CONTACT PAIR,TIED,ADJUST=.001,INTERACTION=TIED,SMALL SLIDING
mount-1.NLEAD1,mount-1.SPACK1
mount-1.NLEAD2,mount-1.SPACK2
mount-1.NPAD1,mount-1.SBOARD1
mount-1.NPAD2,mount-1.SBOARD2
*SURFACE INTERACTION,NAME=TIED
