*Heading
*Preprint, echo=NO, model=NO, history=NO, contact=NO
**
*Part, name=bot
*End Part
**  
*Part, name=cover
*Node, nset=cover
      1,           0.,         6.25
      2,           0.,           6.
      3,           6.,           0.
      4,         6.25,           0.
      5,        -6.25,           0.
      6,          -6.,           0.
      7,           0.,        6.125
      8,  0.336422682,   5.99056101
      9,  0.671786845,   5.96227312
     10,   1.00503731,   5.91522598
     11,   1.33512557,   5.84956741
     12,   1.66101313,   5.76550388
     13,   1.98167431,   5.66330004
     14,   2.29610062,   5.54327726
     15,   2.60330248,   5.40581322
     16,   2.90231323,   5.25134039
     17,   3.19219255,   5.08034515
     18,   3.47202778,   4.89336538
     19,    3.7409389,   4.69098902
     20,   3.99807954,   4.47385311
** ... 148 like lines cut
*Element, elset=cover, type=CPE4
 1,   1,   7, 116,  62
 2,   7,   2,   8, 116
 3,  62, 116, 117,  61
 4, 116,   8,   9, 117
 5,  61, 117, 118,  60
 6, 117,   9,  10, 118
 7,  60, 118, 119,  59
 8, 118,  10,  11, 119
 9,  59, 119, 120,  58
10, 119,  11,  12, 120
11,  58, 120, 121,  57
12, 120,  12,  13, 121
13,  57, 121, 122,  56
14, 121,  13,  14, 122
15,  56, 122, 123,  55
16, 122,  14,  15, 123
17,  55, 123, 124,  54
18, 123,  15,  16, 124
19,  54, 124, 125,  53
20, 124,  16,  17, 125
** ... 90 like lines cut
*Nset, nset=center
 1, 2, 7
*Elset, elset=cover_S2, generate
   2,  110,    2
*Elset, elset=cover_S3
  55,  56, 109, 110
*Elset, elset=cover_S4, generate
   1,  109,    2
*Solid Section, elset=cover, material=Poly
1.,
*End Part
**  
*Part, name=seal
*Node
      1,          -5.,          -3.
      2,          -5.,          -4.
      3,           0.,          -4.
      4,           0.,          -3.
      5,          -6.,          -3.
      6,          -6.,        -3.75
      7,        -5.75,          -4.
      8,           5.,          -4.
      9,           5.,          -3.
     10,          -5.,          -1.
     11,          -6.,          -1.
     12,           6.,          -3.
     13,         5.75,          -4.
     14,           6.,        -3.75
     15,           0.,           4.
     16,           0.,           5.
     17,           6.,          -1.
     18,           5.,          -1.
     19,          -5.,        -3.25
     20,          -5.,         -3.5
** ... 828 like lines cut
*Element, elset=seal, type=CPE4H
  1,   1,  19, 361,  72
  2,  19,  20, 362, 361
  3,  20,  21, 363, 362
  4,  21,   2,  22, 363
  5,  72, 361, 364,  71
  6, 361, 362, 365, 364
  7, 362, 363, 366, 365
  8, 363,  22,  23, 366
  9,  71, 364, 367,  70
 10, 364, 365, 368, 367
 11, 365, 366, 369, 368
 12, 366,  23,  24, 369
 13,  70, 367, 370,  69
 14, 367, 368, 371, 370
 15, 368, 369, 372, 371
 16, 369,  24,  25, 372
 17,  69, 370, 373,  68
 18, 370, 371, 374, 373
 19, 371, 372, 375, 374
 20, 372,  25,  26, 375
** ... 659 like lines cut
*Element, elset=seal, type=CPE3H
101,  81, 442,  80
102, 450, 443, 441
*Nset, nset=center
   3,   4,  15,  16,  46,  47,  48, 169, 170, 171
*Elset, elset=sealInner_S4
   1,   5,   9,  13,  17,  21,  25,  29,  33,  37,  41,  45,  49,  53,  57,  61
  65,  69,  73,  77,  81,  85,  89,  93,  97, 129, 133, 137, 141, 145, 149, 153
 157, 161, 165, 169, 173, 177, 181, 185, 189, 193, 197, 201, 205, 209, 213, 217
 221, 225, 298, 302, 306, 310, 314, 318, 322, 326, 330, 334, 338, 342, 346, 350
 354, 358, 362, 366, 370, 374, 378, 382, 386, 390, 394, 398, 402, 406, 410, 414
 418, 422, 426, 430, 434, 438, 442, 446, 450, 454, 458, 462, 466, 510, 514, 518
 522, 526, 530, 534, 538, 542, 546, 550, 554, 558, 562, 566, 570, 574, 578, 582
 586, 590, 594, 598, 602, 606, 610, 614, 618, 622, 626, 630, 634, 638, 642, 646
 650, 654, 658, 662, 666, 670, 674, 678
*Elset, elset=sealInner_S2
 232, 236, 240, 244, 248, 252, 256, 260, 264, 268, 473, 477, 481, 485, 489, 493
 497, 501, 505, 509
*Elset, elset=sealOuter_S2
   4,   8,  12,  16,  20,  24,  28,  32,  36,  40,  44,  48,  52,  56,  60,  64
  68,  72,  76,  80,  84,  88,  92,  96, 100, 103, 108, 111, 121, 132, 136, 140
 144, 148, 152, 156, 160, 164, 168, 172, 176, 180, 184, 188, 192, 196, 200, 204
 208, 212, 216, 220, 224, 228, 269, 270, 272, 278, 288, 296, 297, 301, 305, 309
 313, 317, 321, 325, 329, 333, 337, 341, 345, 349, 353, 357, 361, 365, 369, 373
 377, 381, 385, 389, 393, 397, 401, 405, 409, 413, 417, 421, 425, 429, 433, 437
 441, 445, 449, 453, 457, 461, 465, 469, 513, 517, 521, 525, 529, 533, 537, 541
 545, 549, 553, 557, 561, 565, 569, 573, 577, 581, 585, 589, 593, 597, 601, 605
 609, 613, 617, 621, 625, 629, 633, 637, 641, 645, 649, 653, 657, 661, 665, 669
 673, 677, 681
*Elset, elset=sealOuter_S3
 101, 106, 107, 109, 114, 118, 119, 271, 277
*Elset, elset=sealOuter_S4
 113, 229, 233, 237, 241, 245, 249, 253, 257, 261, 265, 279, 282, 284, 470, 474
 478, 482, 486, 490, 494, 498, 502, 506
*Solid Section, elset=seal, material=Santoprene
1.,
*End Part
**  
*Part, name=top
*End Part
**  
**
*Assembly, name=Assembly
**  
*Instance, name=seal-1, part=seal
*End Instance
**  
*Instance, name=cover-1, part=cover
 0., -1.0, 0.
*End Instance
**  
*Instance, name=top-1, part=top
   0., 5.25, 0.
*Node, nset=RefPt
      1,          0.,           0.,           0.
*Surface, type=SEGMENTS, name=Top
START,          10.,           0.
 LINE,         -10.,           0.
*Rigid Body, ref node=RefPt, analytical surface=Top
*End Instance
**  
*Instance, name=bot-1, part=bot
   0., -4., 0.
*Node, nset=RefPt
      1,          0.,           0.,           0.
*Surface, type=SEGMENTS, name=Bottom
START,        -10.0,           0.
 LINE,         10.0,           0.
*Rigid Body, ref node=RefPt, analytical surface=Bottom
*End Instance
**  
*Nset, nset=fix1
cover-1.center, seal-1.center
**
*Surface, type=ELEMENT, name=cover
 cover-1.cover_S2, S2
 cover-1.cover_S3, S3
 cover-1.cover_S4, S4
*Surface, type=ELEMENT, name=sealInner
 seal-1.sealInner_S4, S4
 seal-1.sealInner_S2, S2
*Surface, type=ELEMENT, name=sealOuter
 seal-1.sealOuter_S2, S2
 seal-1.sealOuter_S3, S3
 seal-1.sealOuter_S4, S4
**
*Nset, nset=botRP, instance=bot-1
 1,
*Nset, nset=topRP, instance=top-1
 1,
*End Assembly
** 
*Material, name=Poly
*Elastic
240000., 0.4
*Material, name=Santoprene
*Hyperelastic, mooney-rivlin
120.,30., 0.
**
*Surface Interaction, name=frictionless
1.,
*Friction
0.,
*Surface Behavior, penalty
** 
*Boundary
botRP, 1, 6
topRP, 1, 6
fix1,  1, 1
**
**----------------------------------------------
** Add contact definition
**
**
******************
** History data
******************
**----------------------------------------------
** Add step definition
**
**
**----------------------------------------------
** Add boundary condition definition
**
** 
*Output, field, variable=PRESELECT
**
**----------------------------------------------
** Add an element output request of NE
**
**
*Output, history, variable=PRESELECT
**
**----------------------------------------------
** Add an history output request of RF2 and U2
**
*End Step
