1

   Abaqus 2023.HF4                                  Date 07-Jul-2024   Time 17:54:15
   For use by AALTO UNIVERSITY under license from Dassault Systemes or its subsidiary.

                                                                                 
                                                                                 
 STEP    1     INCREMENT     1     STEP TIME    0.00    


                        S T E P       1     S T A T I C   A N A L Y S I S


                                                                                          

     AUTOMATIC TIME CONTROL WITH -
          A SUGGESTED INITIAL TIME INCREMENT OF                 5.00    
          AND A TOTAL TIME PERIOD OF                           1.000E+03
          THE MINIMUM TIME INCREMENT ALLOWED IS                 1.00    
          THE MAXIMUM TIME INCREMENT ALLOWED IS                 10.0    

     LINEAR EQUATION SOLVER TYPE         DIRECT SPARSE

 CONVERGENCE TOLERANCE PARAMETERS FOR FORCE    
     CRITERION FOR RESIDUAL FORCE     FOR A NONLINEAR PROBLEM          5.000E-03
     CRITERION FOR DISP.    CORRECTION IN A NONLINEAR PROBLEM          1.000E-02
     INITIAL VALUE OF TIME AVERAGE FORCE                               1.000E-02
     AVERAGE FORCE     IS TIME AVERAGE FORCE    
     ALTERNATE CRIT. FOR RESIDUAL FORCE     FOR A NONLINEAR PROBLEM    2.000E-02
     CRITERION FOR ZERO FORCE     RELATIVE TO TIME AVRG. FORCE         1.000E-05
     CRITERION FOR RESIDUAL FORCE     WHEN THERE IS ZERO FLUX          1.000E-05
     CRITERION FOR DISP.    CORRECTION WHEN THERE IS ZERO FLUX         1.000E-03
     CRITERION FOR RESIDUAL FORCE     FOR A LINEAR INCREMENT           1.000E-08
     FIELD CONVERSION RATIO                                             1.00    
     CRITERION FOR ZERO FORCE     REL. TO TIME AVRG. MAX. FORCE        1.000E-05
     CRITERION FOR ZERO DISP.    RELATIVE TO CHARACTERISTIC LENGTH     1.000E-08

     VOLUMETRIC STRAIN COMPATIBILITY TOLERANCE FOR HYBRID SOLIDS       1.000E-05
     AXIAL STRAIN COMPATIBILITY TOLERANCE FOR HYBRID BEAMS             1.000E-05
     TRANS. SHEAR STRAIN COMPATIBILITY TOLERANCE FOR HYBRID BEAMS      1.000E-05
     SOFT CONTACT CONSTRAINT COMPATIBILITY TOLERANCE FOR P>P0          5.000E-03
     SOFT CONTACT CONSTRAINT COMPATIBILITY TOLERANCE FOR P=0.0         0.100    
     CONTACT FORCE ERROR TOLERANCE FOR CONVERT SDI=YES                 1.00    
     DISPLACEMENT COMPATIBILITY TOLERANCE FOR DCOUP ELEMENTS           1.000E-05
     ROTATION COMPATIBILITY TOLERANCE FOR DCOUP ELEMENTS               1.000E-05

 EQUILIBRIUM WILL BE CHECKED FOR SEVERE DISCONTINUITY ITERATIONS

 TIME INCREMENTATION CONTROL PARAMETERS:
     FIRST EQUILIBRIUM ITERATION FOR CONSECUTIVE DIVERGENCE CHECK              4
     EQUILIBRIUM ITERATION AT WHICH LOG. CONVERGENCE RATE CHECK BEGINS         8
     EQUILIBRIUM ITERATION AFTER WHICH ALTERNATE RESIDUAL IS USED              9
     MAXIMUM EQUILIBRIUM ITERATIONS ALLOWED                                   16
     EQUILIBRIUM ITERATION COUNT FOR CUT-BACK IN NEXT INCREMENT               10
     MAXIMUM EQUILIB. ITERS IN TWO INCREMENTS FOR TIME INCREMENT INCREASE      4
     MAXIMUM ITERATIONS FOR SEVERE DISCONTINUITIES                            50
     MAXIMUM ATTEMPTS ALLOWED IN AN INCREMENT                                  5
     MAXIMUM DISCON. ITERS IN TWO INCREMENTS FOR TIME INCREMENT INCREASE      50
     MAXIMUM CONTACT AUGMENTATIONS FOR *SURFACE BEHAVIOR,AUGMENTED LAGRANGE   50
     CUT-BACK FACTOR AFTER DIVERGENCE                                 0.2500    
     CUT-BACK FACTOR FOR TOO SLOW CONVERGENCE                         0.5000    
     CUT-BACK FACTOR AFTER TOO MANY EQUILIBRIUM ITERATIONS            0.7500    
     CUT-BACK FACTOR AFTER TOO MANY SEVERE DISCONTINUITY ITERATIONS   0.2500    
     CUT-BACK FACTOR AFTER PROBLEMS IN ELEMENT ASSEMBLY               0.2500    
     INCREASE FACTOR AFTER TWO INCREMENTS THAT CONVERGE QUICKLY        1.500    
     MAX. TIME INCREMENT INCREASE FACTOR ALLOWED                       1.500    
     MAX. TIME INCREMENT INCREASE FACTOR ALLOWED (DYNAMICS)            1.250    
     MAX. TIME INCREMENT INCREASE FACTOR ALLOWED (DIFFUSION)           2.000    
     MINIMUM TIME INCREMENT RATIO FOR EXTRAPOLATION TO OCCUR          0.1000    
     MAX. RATIO OF TIME INCREMENT TO STABILITY LIMIT                   1.000    
     FRACTION OF STABILITY LIMIT FOR NEW TIME INCREMENT               0.9500    
     TIME INCREMENT INCREASE FACTOR BEFORE A TIME POINT                1.000    
     GLOBAL STABILIZATION CONTROL IS NOT USED

          PRINT OF INCREMENT NUMBER, TIME, ETC., EVERY    1  INCREMENTS

     THE MAXIMUM NUMBER OF INCREMENTS IN THIS STEP IS                    1000

          LARGE DISPLACEMENT THEORY WILL BE USED

     LINEAR EXTRAPOLATION WILL BE USED

     CHARACTERISTIC ELEMENT LENGTH     9.225E-04

     DETAILS REGARDING ACTUAL SOLUTION WAVEFRONT REQUESTED

     DETAILED OUTPUT OF DIAGNOSTICS TO DATABASE REQUESTED

     PRINT OF INCREMENT NUMBER, TIME, ETC., TO THE MESSAGE FILE EVERY     1  INCREMENTS

     ELEMENT OPERATIONS WILL BE CARRIED OUT IN PARALLEL USING   8 THREADS ON 1 DOMAIN

     PARALLEL CONTACT TRACKING ENABLED


     COLLECTING MODEL CONSTRAINT INFORMATION FOR OVERCONSTRAINT CHECKS

     COLLECTING STEP CONSTRAINT INFORMATION FOR OVERCONSTRAINT CHECKS


  INCREMENT     1 STARTS. ATTEMPT NUMBER  1, TIME INCREMENT   5.00    
 
     INITIAL ELEMENT LOAD BALANCE
            DOMAIN    1     THREAD    NUMBER OF ELEMENTS
                              1            2568
                              2            2256
                              3            2416
                              4            2512
                              5            2664
                              6            2600
                              7            2640
                              8            2344
 
	SYMMETRIC NEW DIRECT SPARSE SOLVER RUNNING ON
 	1 HOST x 1 MPI RANK PER HOST x 8 THREADS PER RANK
        NUMBER OF EQUATIONS:  75978
        NUMBER OF RHS:        1
        NUMBER OF FLOPS:      1.508e+10
        SOLVER ELAPSED TIME:  367ms

               CONVERGENCE CHECKS FOR EQUILIBRIUM ITERATION     1


 AVERAGE FORCE                       306.       TIME AVG. FORCE        306.    
 LARGEST SCALED RESIDUAL FORCE     -2.776E+03   AT NODE       2683   DOF  1
   INSTANCE: PART-1-1                                                                        
  CORRESPONDING RESIDUAL FORCE     -2.776E+03
 LARGEST INCREMENT OF DISP.         5.000E-03   AT NODE          9   DOF  2
   INSTANCE: PART-1-1                                                                        
 LARGEST CORRECTION TO DISP.        5.000E-03   AT NODE          9   DOF  2
   INSTANCE: PART-1-1                                                                        
          FORCE     EQUILIBRIUM NOT ACHIEVED WITHIN TOLERANCE.
 
	SYMMETRIC NEW DIRECT SPARSE SOLVER RUNNING ON
 	1 HOST x 1 MPI RANK PER HOST x 8 THREADS PER RANK
        NUMBER OF EQUATIONS:  75978
        NUMBER OF RHS:        1
        NUMBER OF FLOPS:      1.508e+10
        SOLVER ELAPSED TIME:  352ms
 

 ***WARNING: THE SYSTEM MATRIX HAS 62 NEGATIVE EIGENVALUES.

     NEGATIVE EIGENVALUES MEAN THAT THE SYSTEM MATRIX IS NOT 
     POSITIVE DEFINITE:
     FOR EXAMPLE, A BIFURCATION (BUCKLING) LOAD MAY HAVE BEEN EXCEEDED.
   ELEMENT PART-1-1.3029 IS DISTORTING EXCESSIVELY.
   ELEMENT PART-1-1.3029 IS DISTORTING EXCESSIVELY.
   ELEMENT PART-1-1.3029 IS DISTORTING EXCESSIVELY.
   ELEMENT PART-1-1.3029 IS DISTORTING EXCESSIVELY.
   ELEMENT PART-1-1.3029 IS DISTORTING EXCESSIVELY.
   ELEMENT PART-1-1.3029 IS DISTORTING EXCESSIVELY.
   ELEMENT PART-1-1.3489 IS DISTORTING EXCESSIVELY.
   ELEMENT PART-1-1.3489 IS DISTORTING EXCESSIVELY.
   ELEMENT PART-1-1.3489 IS DISTORTING EXCESSIVELY.
   ELEMENT PART-1-1.3489 IS DISTORTING EXCESSIVELY.
   ELEMENT PART-1-1.3489 IS DISTORTING EXCESSIVELY.
   ELEMENT PART-1-1.3489 IS DISTORTING EXCESSIVELY.
   ELEMENT PART-1-1.3489 IS DISTORTING EXCESSIVELY.
   ELEMENT PART-1-1.3489 IS DISTORTING EXCESSIVELY.
   ELEMENT PART-1-1.3494 IS DISTORTING EXCESSIVELY.
   ELEMENT PART-1-1.3494 IS DISTORTING EXCESSIVELY.
   ELEMENT PART-1-1.3494 IS DISTORTING EXCESSIVELY.
   ELEMENT PART-1-1.3494 IS DISTORTING EXCESSIVELY.
   ELEMENT PART-1-1.3495 IS DISTORTING EXCESSIVELY.
   ELEMENT PART-1-1.3495 IS DISTORTING EXCESSIVELY.
   ELEMENT PART-1-1.3495 IS DISTORTING EXCESSIVELY.
   ELEMENT PART-1-1.3495 IS DISTORTING EXCESSIVELY.
   ELEMENT PART-1-1.3495 IS DISTORTING EXCESSIVELY.
   ELEMENT PART-1-1.3495 IS DISTORTING EXCESSIVELY.
   ELEMENT PART-1-1.3495 IS DISTORTING EXCESSIVELY.
   ELEMENT PART-1-1.3495 IS DISTORTING EXCESSIVELY.
   ELEMENT PART-1-1.3933 IS DISTORTING EXCESSIVELY.
   ELEMENT PART-1-1.3933 IS DISTORTING EXCESSIVELY.
   ELEMENT PART-1-1.3933 IS DISTORTING EXCESSIVELY.
   ELEMENT PART-1-1.3933 IS DISTORTING EXCESSIVELY.
   ELEMENT PART-1-1.3933 IS DISTORTING EXCESSIVELY.
   ELEMENT PART-1-1.3933 IS DISTORTING EXCESSIVELY.
   ELEMENT PART-1-1.3933 IS DISTORTING EXCESSIVELY.
   ELEMENT PART-1-1.3933 IS DISTORTING EXCESSIVELY.
   ELEMENT PART-1-1.3934 IS DISTORTING EXCESSIVELY.
   ELEMENT PART-1-1.3934 IS DISTORTING EXCESSIVELY.
   ELEMENT PART-1-1.3934 IS DISTORTING EXCESSIVELY.
   ELEMENT PART-1-1.3934 IS DISTORTING EXCESSIVELY.
   ELEMENT PART-1-1.3934 IS DISTORTING EXCESSIVELY.
   ELEMENT PART-1-1.4189 IS DISTORTING EXCESSIVELY.
   ELEMENT PART-1-1.4189 IS DISTORTING EXCESSIVELY.
   ELEMENT PART-1-1.4189 IS DISTORTING EXCESSIVELY.
   ELEMENT PART-1-1.4189 IS DISTORTING EXCESSIVELY.
   ELEMENT PART-1-1.4189 IS DISTORTING EXCESSIVELY.
   ELEMENT PART-1-1.4189 IS DISTORTING EXCESSIVELY.
   ELEMENT PART-1-1.4189 IS DISTORTING EXCESSIVELY.
   ELEMENT PART-1-1.4189 IS DISTORTING EXCESSIVELY.
   ELEMENT PART-1-1.4340 IS DISTORTING EXCESSIVELY.
   ELEMENT PART-1-1.4340 IS DISTORTING EXCESSIVELY.
   ELEMENT PART-1-1.4340 IS DISTORTING EXCESSIVELY.
   ELEMENT PART-1-1.4340 IS DISTORTING EXCESSIVELY.
   ELEMENT PART-1-1.4341 IS DISTORTING EXCESSIVELY.
   ELEMENT PART-1-1.4341 IS DISTORTING EXCESSIVELY.
   ELEMENT PART-1-1.4341 IS DISTORTING EXCESSIVELY.
   ELEMENT PART-1-1.4341 IS DISTORTING EXCESSIVELY.
   ELEMENT PART-1-1.4341 IS DISTORTING EXCESSIVELY.
   ELEMENT PART-1-1.4341 IS DISTORTING EXCESSIVELY.
   ELEMENT PART-1-1.4341 IS DISTORTING EXCESSIVELY.
   ELEMENT PART-1-1.4341 IS DISTORTING EXCESSIVELY.
   ELEMENT PART-1-1.4795 IS DISTORTING EXCESSIVELY.
   ELEMENT PART-1-1.4795 IS DISTORTING EXCESSIVELY.
   ELEMENT PART-1-1.4795 IS DISTORTING EXCESSIVELY.
   ELEMENT PART-1-1.4795 IS DISTORTING EXCESSIVELY.
   ELEMENT PART-1-1.4795 IS DISTORTING EXCESSIVELY.
   ELEMENT PART-1-1.4795 IS DISTORTING EXCESSIVELY.
   ELEMENT PART-1-1.4796 IS DISTORTING EXCESSIVELY.
   ELEMENT PART-1-1.4796 IS DISTORTING EXCESSIVELY.
   ELEMENT PART-1-1.4796 IS DISTORTING EXCESSIVELY.
   ELEMENT PART-1-1.4796 IS DISTORTING EXCESSIVELY.
   ELEMENT PART-1-1.4796 IS DISTORTING EXCESSIVELY.
   ELEMENT PART-1-1.4796 IS DISTORTING EXCESSIVELY.
   ELEMENT PART-1-1.4796 IS DISTORTING EXCESSIVELY.
   ELEMENT PART-1-1.4796 IS DISTORTING EXCESSIVELY.
   ELEMENT PART-1-1.4797 IS DISTORTING EXCESSIVELY.
   ELEMENT PART-1-1.4797 IS DISTORTING EXCESSIVELY.
   ELEMENT PART-1-1.4797 IS DISTORTING EXCESSIVELY.
   ELEMENT PART-1-1.4797 IS DISTORTING EXCESSIVELY.
   ELEMENT PART-1-1.4797 IS DISTORTING EXCESSIVELY.
   ELEMENT PART-1-1.4797 IS DISTORTING EXCESSIVELY.
   ELEMENT PART-1-1.4797 IS DISTORTING EXCESSIVELY.
   ELEMENT PART-1-1.4797 IS DISTORTING EXCESSIVELY.
   ELEMENT PART-1-1.14639 IS DISTORTING EXCESSIVELY.
   ELEMENT PART-1-1.14639 IS DISTORTING EXCESSIVELY.
   ELEMENT PART-1-1.14639 IS DISTORTING EXCESSIVELY.
   ELEMENT PART-1-1.14639 IS DISTORTING EXCESSIVELY.
   ELEMENT PART-1-1.14639 IS DISTORTING EXCESSIVELY.
   ELEMENT PART-1-1.14639 IS DISTORTING EXCESSIVELY.
   ELEMENT PART-1-1.14639 IS DISTORTING EXCESSIVELY.
   ELEMENT PART-1-1.14639 IS DISTORTING EXCESSIVELY.
   ELEMENT PART-1-1.14640 IS DISTORTING EXCESSIVELY.
   ELEMENT PART-1-1.14640 IS DISTORTING EXCESSIVELY.
   ELEMENT PART-1-1.14640 IS DISTORTING EXCESSIVELY.
   ELEMENT PART-1-1.14640 IS DISTORTING EXCESSIVELY.
   ELEMENT PART-1-1.14640 IS DISTORTING EXCESSIVELY.
   ELEMENT PART-1-1.14640 IS DISTORTING EXCESSIVELY.
   ELEMENT PART-1-1.14640 IS DISTORTING EXCESSIVELY.
   ELEMENT PART-1-1.14640 IS DISTORTING EXCESSIVELY.
   ELEMENT PART-1-1.15377 IS DISTORTING EXCESSIVELY.
   ELEMENT PART-1-1.15377 IS DISTORTING EXCESSIVELY.
   ELEMENT PART-1-1.15383 IS DISTORTING EXCESSIVELY.
   ELEMENT PART-1-1.15383 IS DISTORTING EXCESSIVELY.
   ELEMENT PART-1-1.15547 IS DISTORTING EXCESSIVELY.
   ELEMENT PART-1-1.15547 IS DISTORTING EXCESSIVELY.
   ELEMENT PART-1-1.15650 IS DISTORTING EXCESSIVELY.
   ELEMENT PART-1-1.15650 IS DISTORTING EXCESSIVELY.
   ELEMENT PART-1-1.15651 IS DISTORTING EXCESSIVELY.
   ELEMENT PART-1-1.15651 IS DISTORTING EXCESSIVELY.
   ELEMENT PART-1-1.15651 IS DISTORTING EXCESSIVELY.
   ELEMENT PART-1-1.15651 IS DISTORTING EXCESSIVELY.
   ELEMENT PART-1-1.15651 IS DISTORTING EXCESSIVELY.
   ELEMENT PART-1-1.15651 IS DISTORTING EXCESSIVELY.
   ELEMENT PART-1-1.15651 IS DISTORTING EXCESSIVELY.
   ELEMENT PART-1-1.15651 IS DISTORTING EXCESSIVELY.
   ELEMENT PART-1-1.15833 IS DISTORTING EXCESSIVELY.
   ELEMENT PART-1-1.15833 IS DISTORTING EXCESSIVELY.
   ELEMENT PART-1-1.15833 IS DISTORTING EXCESSIVELY.
   ELEMENT PART-1-1.15833 IS DISTORTING EXCESSIVELY.
   ELEMENT PART-1-1.15833 IS DISTORTING EXCESSIVELY.
   ELEMENT PART-1-1.15833 IS DISTORTING EXCESSIVELY.
   ELEMENT PART-1-1.15833 IS DISTORTING EXCESSIVELY.
   ELEMENT PART-1-1.15833 IS DISTORTING EXCESSIVELY.
   ELEMENT PART-1-1.15834 IS DISTORTING EXCESSIVELY.
   ELEMENT PART-1-1.15834 IS DISTORTING EXCESSIVELY.
   ELEMENT PART-1-1.15834 IS DISTORTING EXCESSIVELY.
   ELEMENT PART-1-1.15834 IS DISTORTING EXCESSIVELY.
   ELEMENT PART-1-1.15834 IS DISTORTING EXCESSIVELY.
   ELEMENT PART-1-1.16083 IS DISTORTING EXCESSIVELY.
   ELEMENT PART-1-1.16083 IS DISTORTING EXCESSIVELY.
   ELEMENT PART-1-1.16083 IS DISTORTING EXCESSIVELY.
   ELEMENT PART-1-1.16083 IS DISTORTING EXCESSIVELY.
   ELEMENT PART-1-1.16083 IS DISTORTING EXCESSIVELY.
   ELEMENT PART-1-1.16083 IS DISTORTING EXCESSIVELY.
   ELEMENT PART-1-1.16083 IS DISTORTING EXCESSIVELY.
   ELEMENT PART-1-1.16083 IS DISTORTING EXCESSIVELY.
   ELEMENT PART-1-1.16241 IS DISTORTING EXCESSIVELY.
   ELEMENT PART-1-1.16241 IS DISTORTING EXCESSIVELY.
   ELEMENT PART-1-1.16241 IS DISTORTING EXCESSIVELY.
   ELEMENT PART-1-1.16241 IS DISTORTING EXCESSIVELY.
   ELEMENT PART-1-1.16241 IS DISTORTING EXCESSIVELY.
   ELEMENT PART-1-1.16241 IS DISTORTING EXCESSIVELY.
   ELEMENT PART-1-1.16241 IS DISTORTING EXCESSIVELY.
   ELEMENT PART-1-1.16241 IS DISTORTING EXCESSIVELY.
   ELEMENT PART-1-1.16246 IS DISTORTING EXCESSIVELY.
   ELEMENT PART-1-1.16246 IS DISTORTING EXCESSIVELY.
   ELEMENT PART-1-1.16247 IS DISTORTING EXCESSIVELY.
   ELEMENT PART-1-1.16247 IS DISTORTING EXCESSIVELY.
   ELEMENT PART-1-1.16247 IS DISTORTING EXCESSIVELY.
   ELEMENT PART-1-1.16247 IS DISTORTING EXCESSIVELY.
   ELEMENT PART-1-1.16247 IS DISTORTING EXCESSIVELY.
   ELEMENT PART-1-1.16247 IS DISTORTING EXCESSIVELY.
   ELEMENT PART-1-1.16247 IS DISTORTING EXCESSIVELY.
   ELEMENT PART-1-1.16247 IS DISTORTING EXCESSIVELY.
   ELEMENT PART-1-1.16637 IS DISTORTING EXCESSIVELY.
   ELEMENT PART-1-1.16637 IS DISTORTING EXCESSIVELY.
   ELEMENT PART-1-1.16637 IS DISTORTING EXCESSIVELY.
   ELEMENT PART-1-1.16637 IS DISTORTING EXCESSIVELY.
   ELEMENT PART-1-1.16637 IS DISTORTING EXCESSIVELY.
   ELEMENT PART-1-1.16637 IS DISTORTING EXCESSIVELY.
   ELEMENT PART-1-1.16637 IS DISTORTING EXCESSIVELY.
   ELEMENT PART-1-1.16637 IS DISTORTING EXCESSIVELY.
   ELEMENT PART-1-1.16789 IS DISTORTING EXCESSIVELY.
   ELEMENT PART-1-1.16789 IS DISTORTING EXCESSIVELY.
   ELEMENT PART-1-1.16789 IS DISTORTING EXCESSIVELY.
   ELEMENT PART-1-1.16789 IS DISTORTING EXCESSIVELY.
   ELEMENT PART-1-1.16789 IS DISTORTING EXCESSIVELY.
   ELEMENT PART-1-1.16789 IS DISTORTING EXCESSIVELY.
   ELEMENT PART-1-1.16789 IS DISTORTING EXCESSIVELY.
   ELEMENT PART-1-1.16789 IS DISTORTING EXCESSIVELY.
   ELEMENT PART-1-1.16946 IS DISTORTING EXCESSIVELY.
   ELEMENT PART-1-1.16947 IS DISTORTING EXCESSIVELY.
   ELEMENT PART-1-1.16947 IS DISTORTING EXCESSIVELY.
   ELEMENT PART-1-1.16947 IS DISTORTING EXCESSIVELY.
   ELEMENT PART-1-1.16947 IS DISTORTING EXCESSIVELY.
   ELEMENT PART-1-1.16947 IS DISTORTING EXCESSIVELY.
   ELEMENT PART-1-1.16947 IS DISTORTING EXCESSIVELY.
   ELEMENT PART-1-1.16947 IS DISTORTING EXCESSIVELY.
   ELEMENT PART-1-1.16947 IS DISTORTING EXCESSIVELY.
   ELEMENT PART-1-1.3169 IS DISTORTING EXCESSIVELY.
   ELEMENT PART-1-1.3169 IS DISTORTING EXCESSIVELY.
   ELEMENT PART-1-1.3169 IS DISTORTING EXCESSIVELY.
   ELEMENT PART-1-1.3169 IS DISTORTING EXCESSIVELY.
   ELEMENT PART-1-1.3169 IS DISTORTING EXCESSIVELY.
   ELEMENT PART-1-1.3169 IS DISTORTING EXCESSIVELY.
   ELEMENT PART-1-1.3169 IS DISTORTING EXCESSIVELY.
   ELEMENT PART-1-1.3169 IS DISTORTING EXCESSIVELY.
   ELEMENT PART-1-1.3170 IS DISTORTING EXCESSIVELY.
   ELEMENT PART-1-1.3170 IS DISTORTING EXCESSIVELY.
   ELEMENT PART-1-1.3170 IS DISTORTING EXCESSIVELY.
   ELEMENT PART-1-1.3170 IS DISTORTING EXCESSIVELY.
   ELEMENT PART-1-1.3170 IS DISTORTING EXCESSIVELY.
   ELEMENT PART-1-1.3170 IS DISTORTING EXCESSIVELY.
   ELEMENT PART-1-1.3170 IS DISTORTING EXCESSIVELY.
   ELEMENT PART-1-1.3170 IS DISTORTING EXCESSIVELY.
   ELEMENT PART-1-1.3233 IS DISTORTING EXCESSIVELY.
   ELEMENT PART-1-1.3233 IS DISTORTING EXCESSIVELY.
   ELEMENT PART-1-1.3233 IS DISTORTING EXCESSIVELY.
   ELEMENT PART-1-1.3233 IS DISTORTING EXCESSIVELY.
   ELEMENT PART-1-1.3233 IS DISTORTING EXCESSIVELY.
   ELEMENT PART-1-1.3233 IS DISTORTING EXCESSIVELY.
   ELEMENT PART-1-1.3233 IS DISTORTING EXCESSIVELY.
   ELEMENT PART-1-1.3233 IS DISTORTING EXCESSIVELY.
   ELEMENT PART-1-1.3234 IS DISTORTING EXCESSIVELY.
   ELEMENT PART-1-1.3234 IS DISTORTING EXCESSIVELY.
   ELEMENT PART-1-1.3234 IS DISTORTING EXCESSIVELY.
   ELEMENT PART-1-1.3309 IS DISTORTING EXCESSIVELY.
   ELEMENT PART-1-1.3309 IS DISTORTING EXCESSIVELY.
   ELEMENT PART-1-1.3309 IS DISTORTING EXCESSIVELY.
   ELEMENT PART-1-1.3309 IS DISTORTING EXCESSIVELY.
   ELEMENT PART-1-1.3309 IS DISTORTING EXCESSIVELY.
   ELEMENT PART-1-1.3309 IS DISTORTING EXCESSIVELY.
   ELEMENT PART-1-1.3309 IS DISTORTING EXCESSIVELY.
   ELEMENT PART-1-1.3309 IS DISTORTING EXCESSIVELY.
   ELEMENT PART-1-1.3310 IS DISTORTING EXCESSIVELY.
   ELEMENT PART-1-1.3310 IS DISTORTING EXCESSIVELY.
   ELEMENT PART-1-1.3310 IS DISTORTING EXCESSIVELY.
   ELEMENT PART-1-1.3310 IS DISTORTING EXCESSIVELY.
   ELEMENT PART-1-1.3310 IS DISTORTING EXCESSIVELY.
   ELEMENT PART-1-1.3310 IS DISTORTING EXCESSIVELY.
   ELEMENT PART-1-1.3310 IS DISTORTING EXCESSIVELY.
   ELEMENT PART-1-1.3310 IS DISTORTING EXCESSIVELY.
   ELEMENT PART-1-1.3405 IS DISTORTING EXCESSIVELY.
   ELEMENT PART-1-1.3405 IS DISTORTING EXCESSIVELY.
   ELEMENT PART-1-1.3406 IS DISTORTING EXCESSIVELY.
   ELEMENT PART-1-1.3406 IS DISTORTING EXCESSIVELY.
   ELEMENT PART-1-1.3406 IS DISTORTING EXCESSIVELY.
   ELEMENT PART-1-1.3406 IS DISTORTING EXCESSIVELY.
   ELEMENT PART-1-1.3406 IS DISTORTING EXCESSIVELY.
   ELEMENT PART-1-1.3406 IS DISTORTING EXCESSIVELY.
   ELEMENT PART-1-1.3406 IS DISTORTING EXCESSIVELY.
   ELEMENT PART-1-1.3406 IS DISTORTING EXCESSIVELY.
   ELEMENT PART-1-1.3407 IS DISTORTING EXCESSIVELY.
   ELEMENT PART-1-1.3407 IS DISTORTING EXCESSIVELY.
   ELEMENT PART-1-1.3477 IS DISTORTING EXCESSIVELY.
   ELEMENT PART-1-1.3477 IS DISTORTING EXCESSIVELY.
   ELEMENT PART-1-1.3477 IS DISTORTING EXCESSIVELY.
   ELEMENT PART-1-1.3477 IS DISTORTING EXCESSIVELY.
   ELEMENT PART-1-1.3477 IS DISTORTING EXCESSIVELY.
   ELEMENT PART-1-1.3477 IS DISTORTING EXCESSIVELY.
   ELEMENT PART-1-1.3477 IS DISTORTING EXCESSIVELY.
   ELEMENT PART-1-1.3477 IS DISTORTING EXCESSIVELY.
   ELEMENT PART-1-1.3513 IS DISTORTING EXCESSIVELY.
   ELEMENT PART-1-1.3513 IS DISTORTING EXCESSIVELY.
   ELEMENT PART-1-1.3513 IS DISTORTING EXCESSIVELY.
   ELEMENT PART-1-1.3513 IS DISTORTING EXCESSIVELY.
   ELEMENT PART-1-1.3513 IS DISTORTING EXCESSIVELY.
   ELEMENT PART-1-1.3513 IS DISTORTING EXCESSIVELY.
   ELEMENT PART-1-1.3513 IS DISTORTING EXCESSIVELY.
   ELEMENT PART-1-1.3513 IS DISTORTING EXCESSIVELY.
   ELEMENT PART-1-1.3514 IS DISTORTING EXCESSIVELY.
   ELEMENT PART-1-1.3514 IS DISTORTING EXCESSIVELY.
   ELEMENT PART-1-1.3514 IS DISTORTING EXCESSIVELY.
   ELEMENT PART-1-1.3617 IS DISTORTING EXCESSIVELY.
   ELEMENT PART-1-1.3617 IS DISTORTING EXCESSIVELY.
   ELEMENT PART-1-1.3617 IS DISTORTING EXCESSIVELY.
   ELEMENT PART-1-1.3617 IS DISTORTING EXCESSIVELY.
   ELEMENT PART-1-1.3617 IS DISTORTING EXCESSIVELY.
   ELEMENT PART-1-1.3617 IS DISTORTING EXCESSIVELY.
   ELEMENT PART-1-1.3617 IS DISTORTING EXCESSIVELY.
   ELEMENT PART-1-1.3617 IS DISTORTING EXCESSIVELY.
   ELEMENT PART-1-1.3623 IS DISTORTING EXCESSIVELY.
   ELEMENT PART-1-1.3623 IS DISTORTING EXCESSIVELY.
   ELEMENT PART-1-1.3623 IS DISTORTING EXCESSIVELY.
   ELEMENT PART-1-1.3623 IS DISTORTING EXCESSIVELY.
   ELEMENT PART-1-1.3623 IS DISTORTING EXCESSIVELY.
   ELEMENT PART-1-1.3623 IS DISTORTING EXCESSIVELY.
   ELEMENT PART-1-1.3623 IS DISTORTING EXCESSIVELY.
   ELEMENT PART-1-1.3623 IS DISTORTING EXCESSIVELY.
   ELEMENT PART-1-1.3750 IS DISTORTING EXCESSIVELY.
   ELEMENT PART-1-1.3750 IS DISTORTING EXCESSIVELY.
   ELEMENT PART-1-1.3751 IS DISTORTING EXCESSIVELY.
   ELEMENT PART-1-1.3751 IS DISTORTING EXCESSIVELY.
   ELEMENT PART-1-1.3751 IS DISTORTING EXCESSIVELY.
   ELEMENT PART-1-1.3751 IS DISTORTING EXCESSIVELY.
   ELEMENT PART-1-1.3751 IS DISTORTING EXCESSIVELY.
   ELEMENT PART-1-1.3751 IS DISTORTING EXCESSIVELY.
   ELEMENT PART-1-1.3751 IS DISTORTING EXCESSIVELY.
   ELEMENT PART-1-1.3751 IS DISTORTING EXCESSIVELY.
   ELEMENT PART-1-1.3817 IS DISTORTING EXCESSIVELY.
   ELEMENT PART-1-1.3817 IS DISTORTING EXCESSIVELY.
   ELEMENT PART-1-1.3817 IS DISTORTING EXCESSIVELY.
   ELEMENT PART-1-1.3859 IS DISTORTING EXCESSIVELY.
   ELEMENT PART-1-1.3859 IS DISTORTING EXCESSIVELY.
   ELEMENT PART-1-1.3859 IS DISTORTING EXCESSIVELY.
   ELEMENT PART-1-1.3859 IS DISTORTING EXCESSIVELY.
   ELEMENT PART-1-1.3859 IS DISTORTING EXCESSIVELY.
   ELEMENT PART-1-1.3859 IS DISTORTING EXCESSIVELY.
   ELEMENT PART-1-1.3859 IS DISTORTING EXCESSIVELY.
   ELEMENT PART-1-1.3859 IS DISTORTING EXCESSIVELY.
   ELEMENT PART-1-1.3860 IS DISTORTING EXCESSIVELY.
   ELEMENT PART-1-1.3860 IS DISTORTING EXCESSIVELY.
   ELEMENT PART-1-1.3860 IS DISTORTING EXCESSIVELY.
   ELEMENT PART-1-1.3860 IS DISTORTING EXCESSIVELY.
   ELEMENT PART-1-1.3860 IS DISTORTING EXCESSIVELY.
   ELEMENT PART-1-1.3860 IS DISTORTING EXCESSIVELY.
   ELEMENT PART-1-1.3860 IS DISTORTING EXCESSIVELY.
   ELEMENT PART-1-1.3860 IS DISTORTING EXCESSIVELY.
   ELEMENT PART-1-1.3861 IS DISTORTING EXCESSIVELY.
   ELEMENT PART-1-1.3861 IS DISTORTING EXCESSIVELY.
   ELEMENT PART-1-1.3861 IS DISTORTING EXCESSIVELY.
   ELEMENT PART-1-1.3861 IS DISTORTING EXCESSIVELY.
   ELEMENT PART-1-1.3861 IS DISTORTING EXCESSIVELY.
   ELEMENT PART-1-1.3861 IS DISTORTING EXCESSIVELY.
   ELEMENT PART-1-1.3861 IS DISTORTING EXCESSIVELY.
   ELEMENT PART-1-1.3861 IS DISTORTING EXCESSIVELY.
   ELEMENT PART-1-1.4024 IS DISTORTING EXCESSIVELY.
   ELEMENT PART-1-1.4024 IS DISTORTING EXCESSIVELY.
   ELEMENT PART-1-1.4024 IS DISTORTING EXCESSIVELY.
   ELEMENT PART-1-1.4024 IS DISTORTING EXCESSIVELY.
   ELEMENT PART-1-1.4024 IS DISTORTING EXCESSIVELY.
   ELEMENT PART-1-1.4024 IS DISTORTING EXCESSIVELY.
   ELEMENT PART-1-1.4024 IS DISTORTING EXCESSIVELY.
   ELEMENT PART-1-1.4024 IS DISTORTING EXCESSIVELY.
   ELEMENT PART-1-1.4049 IS DISTORTING EXCESSIVELY.
   ELEMENT PART-1-1.4049 IS DISTORTING EXCESSIVELY.
   ELEMENT PART-1-1.4049 IS DISTORTING EXCESSIVELY.
   ELEMENT PART-1-1.4049 IS DISTORTING EXCESSIVELY.
   ELEMENT PART-1-1.4055 IS DISTORTING EXCESSIVELY.
   ELEMENT PART-1-1.4055 IS DISTORTING EXCESSIVELY.
   ELEMENT PART-1-1.4055 IS DISTORTING EXCESSIVELY.
   ELEMENT PART-1-1.4055 IS DISTORTING EXCESSIVELY.
   ELEMENT PART-1-1.4149 IS DISTORTING EXCESSIVELY.
   ELEMENT PART-1-1.4149 IS DISTORTING EXCESSIVELY.
   ELEMENT PART-1-1.4149 IS DISTORTING EXCESSIVELY.
   ELEMENT PART-1-1.4149 IS DISTORTING EXCESSIVELY.
   ELEMENT PART-1-1.4149 IS DISTORTING EXCESSIVELY.
   ELEMENT PART-1-1.4149 IS DISTORTING EXCESSIVELY.
   ELEMENT PART-1-1.4149 IS DISTORTING EXCESSIVELY.
   ELEMENT PART-1-1.4149 IS DISTORTING EXCESSIVELY.
   ELEMENT PART-1-1.4150 IS DISTORTING EXCESSIVELY.
   ELEMENT PART-1-1.4150 IS DISTORTING EXCESSIVELY.
   ELEMENT PART-1-1.4150 IS DISTORTING EXCESSIVELY.
   ELEMENT PART-1-1.4150 IS DISTORTING EXCESSIVELY.
   ELEMENT PART-1-1.4150 IS DISTORTING EXCESSIVELY.
   ELEMENT PART-1-1.4213 IS DISTORTING EXCESSIVELY.
   ELEMENT PART-1-1.4213 IS DISTORTING EXCESSIVELY.
   ELEMENT PART-1-1.4213 IS DISTORTING EXCESSIVELY.
   ELEMENT PART-1-1.4213 IS DISTORTING EXCESSIVELY.
   ELEMENT PART-1-1.4213 IS DISTORTING EXCESSIVELY.
   ELEMENT PART-1-1.4213 IS DISTORTING EXCESSIVELY.
   ELEMENT PART-1-1.4213 IS DISTORTING EXCESSIVELY.
   ELEMENT PART-1-1.4213 IS DISTORTING EXCESSIVELY.
   ELEMENT PART-1-1.4214 IS DISTORTING EXCESSIVELY.
   ELEMENT PART-1-1.4214 IS DISTORTING EXCESSIVELY.
   ELEMENT PART-1-1.4214 IS DISTORTING EXCESSIVELY.
   ELEMENT PART-1-1.4214 IS DISTORTING EXCESSIVELY.
   ELEMENT PART-1-1.4214 IS DISTORTING EXCESSIVELY.
   ELEMENT PART-1-1.4310 IS DISTORTING EXCESSIVELY.
   ELEMENT PART-1-1.4310 IS DISTORTING EXCESSIVELY.
   ELEMENT PART-1-1.4311 IS DISTORTING EXCESSIVELY.
   ELEMENT PART-1-1.4311 IS DISTORTING EXCESSIVELY.
   ELEMENT PART-1-1.4311 IS DISTORTING EXCESSIVELY.
   ELEMENT PART-1-1.4311 IS DISTORTING EXCESSIVELY.
   ELEMENT PART-1-1.4311 IS DISTORTING EXCESSIVELY.
   ELEMENT PART-1-1.4311 IS DISTORTING EXCESSIVELY.
   ELEMENT PART-1-1.4311 IS DISTORTING EXCESSIVELY.
   ELEMENT PART-1-1.4311 IS DISTORTING EXCESSIVELY.
   ELEMENT PART-1-1.4375 IS DISTORTING EXCESSIVELY.
   ELEMENT PART-1-1.4375 IS DISTORTING EXCESSIVELY.
   ELEMENT PART-1-1.4375 IS DISTORTING EXCESSIVELY.
   ELEMENT PART-1-1.4375 IS DISTORTING EXCESSIVELY.
   ELEMENT PART-1-1.4376 IS DISTORTING EXCESSIVELY.
   ELEMENT PART-1-1.4376 IS DISTORTING EXCESSIVELY.
   ELEMENT PART-1-1.4376 IS DISTORTING EXCESSIVELY.
   ELEMENT PART-1-1.4376 IS DISTORTING EXCESSIVELY.
   ELEMENT PART-1-1.4376 IS DISTORTING EXCESSIVELY.
   ELEMENT PART-1-1.4376 IS DISTORTING EXCESSIVELY.
   ELEMENT PART-1-1.4376 IS DISTORTING EXCESSIVELY.
   ELEMENT PART-1-1.4376 IS DISTORTING EXCESSIVELY.
   ELEMENT PART-1-1.4493 IS DISTORTING EXCESSIVELY.
   ELEMENT PART-1-1.4493 IS DISTORTING EXCESSIVELY.
   ELEMENT PART-1-1.4569 IS DISTORTING EXCESSIVELY.
   ELEMENT PART-1-1.4569 IS DISTORTING EXCESSIVELY.
   ELEMENT PART-1-1.4569 IS DISTORTING EXCESSIVELY.
   ELEMENT PART-1-1.4569 IS DISTORTING EXCESSIVELY.
   ELEMENT PART-1-1.4569 IS DISTORTING EXCESSIVELY.
   ELEMENT PART-1-1.4569 IS DISTORTING EXCESSIVELY.
   ELEMENT PART-1-1.4569 IS DISTORTING EXCESSIVELY.
   ELEMENT PART-1-1.4666 IS DISTORTING EXCESSIVELY.
   ELEMENT PART-1-1.4666 IS DISTORTING EXCESSIVELY.
   ELEMENT PART-1-1.4666 IS DISTORTING EXCESSIVELY.
   ELEMENT PART-1-1.4666 IS DISTORTING EXCESSIVELY.
   ELEMENT PART-1-1.4666 IS DISTORTING EXCESSIVELY.
   ELEMENT PART-1-1.4666 IS DISTORTING EXCESSIVELY.
   ELEMENT PART-1-1.4666 IS DISTORTING EXCESSIVELY.
   ELEMENT PART-1-1.4666 IS DISTORTING EXCESSIVELY.
   ELEMENT PART-1-1.4667 IS DISTORTING EXCESSIVELY.
   ELEMENT PART-1-1.4667 IS DISTORTING EXCESSIVELY.
   ELEMENT PART-1-1.4849 IS DISTORTING EXCESSIVELY.
   ELEMENT PART-1-1.4849 IS DISTORTING EXCESSIVELY.
   ELEMENT PART-1-1.4849 IS DISTORTING EXCESSIVELY.
   ELEMENT PART-1-1.4849 IS DISTORTING EXCESSIVELY.
   ELEMENT PART-1-1.4849 IS DISTORTING EXCESSIVELY.
   ELEMENT PART-1-1.4849 IS DISTORTING EXCESSIVELY.
   ELEMENT PART-1-1.4849 IS DISTORTING EXCESSIVELY.
   ELEMENT PART-1-1.4935 IS DISTORTING EXCESSIVELY.
   ELEMENT PART-1-1.4935 IS DISTORTING EXCESSIVELY.
   ELEMENT PART-1-1.4935 IS DISTORTING EXCESSIVELY.
   ELEMENT PART-1-1.4935 IS DISTORTING EXCESSIVELY.
   ELEMENT PART-1-1.4935 IS DISTORTING EXCESSIVELY.
   ELEMENT PART-1-1.4936 IS DISTORTING EXCESSIVELY.
   ELEMENT PART-1-1.4936 IS DISTORTING EXCESSIVELY.
   ELEMENT PART-1-1.4936 IS DISTORTING EXCESSIVELY.
   ELEMENT PART-1-1.4936 IS DISTORTING EXCESSIVELY.
   ELEMENT PART-1-1.4936 IS DISTORTING EXCESSIVELY.
   ELEMENT PART-1-1.4936 IS DISTORTING EXCESSIVELY.
   ELEMENT PART-1-1.4936 IS DISTORTING EXCESSIVELY.
   ELEMENT PART-1-1.4936 IS DISTORTING EXCESSIVELY.
   ELEMENT PART-1-1.5216 IS DISTORTING EXCESSIVELY.
   ELEMENT PART-1-1.5216 IS DISTORTING EXCESSIVELY.
   ELEMENT PART-1-1.5399 IS DISTORTING EXCESSIVELY.
   ELEMENT PART-1-1.5399 IS DISTORTING EXCESSIVELY.
   ELEMENT PART-1-1.5399 IS DISTORTING EXCESSIVELY.
   ELEMENT PART-1-1.5399 IS DISTORTING EXCESSIVELY.
   ELEMENT PART-1-1.5399 IS DISTORTING EXCESSIVELY.
   ELEMENT PART-1-1.5399 IS DISTORTING EXCESSIVELY.
   ELEMENT PART-1-1.5399 IS DISTORTING EXCESSIVELY.
   ELEMENT PART-1-1.5399 IS DISTORTING EXCESSIVELY.
   ELEMENT PART-1-1.5400 IS DISTORTING EXCESSIVELY.
   ELEMENT PART-1-1.5400 IS DISTORTING EXCESSIVELY.
   ELEMENT PART-1-1.5400 IS DISTORTING EXCESSIVELY.
   ELEMENT PART-1-1.5400 IS DISTORTING EXCESSIVELY.
   ELEMENT PART-1-1.5400 IS DISTORTING EXCESSIVELY.
   ELEMENT PART-1-1.5400 IS DISTORTING EXCESSIVELY.
   ELEMENT PART-1-1.5400 IS DISTORTING EXCESSIVELY.
   ELEMENT PART-1-1.5400 IS DISTORTING EXCESSIVELY.
   ELEMENT PART-1-1.14219 IS DISTORTING EXCESSIVELY.
   ELEMENT PART-1-1.14219 IS DISTORTING EXCESSIVELY.
   ELEMENT PART-1-1.14219 IS DISTORTING EXCESSIVELY.
   ELEMENT PART-1-1.14219 IS DISTORTING EXCESSIVELY.
   ELEMENT PART-1-1.14220 IS DISTORTING EXCESSIVELY.
   ELEMENT PART-1-1.14220 IS DISTORTING EXCESSIVELY.
   ELEMENT PART-1-1.14220 IS DISTORTING EXCESSIVELY.
   ELEMENT PART-1-1.14220 IS DISTORTING EXCESSIVELY.
   ELEMENT PART-1-1.14919 IS DISTORTING EXCESSIVELY.
   ELEMENT PART-1-1.14919 IS DISTORTING EXCESSIVELY.
   ELEMENT PART-1-1.14919 IS DISTORTING EXCESSIVELY.
   ELEMENT PART-1-1.14919 IS DISTORTING EXCESSIVELY.
   ELEMENT PART-1-1.14919 IS DISTORTING EXCESSIVELY.
   ELEMENT PART-1-1.14919 IS DISTORTING EXCESSIVELY.
   ELEMENT PART-1-1.14919 IS DISTORTING EXCESSIVELY.
   ELEMENT PART-1-1.14919 IS DISTORTING EXCESSIVELY.
   ELEMENT PART-1-1.14920 IS DISTORTING EXCESSIVELY.
   ELEMENT PART-1-1.14920 IS DISTORTING EXCESSIVELY.
   ELEMENT PART-1-1.14920 IS DISTORTING EXCESSIVELY.
   ELEMENT PART-1-1.14920 IS DISTORTING EXCESSIVELY.
   ELEMENT PART-1-1.14920 IS DISTORTING EXCESSIVELY.
   ELEMENT PART-1-1.14920 IS DISTORTING EXCESSIVELY.
   ELEMENT PART-1-1.14920 IS DISTORTING EXCESSIVELY.
   ELEMENT PART-1-1.14920 IS DISTORTING EXCESSIVELY.
   ELEMENT PART-1-1.15209 IS DISTORTING EXCESSIVELY.
   ELEMENT PART-1-1.15209 IS DISTORTING EXCESSIVELY.
   ELEMENT PART-1-1.15209 IS DISTORTING EXCESSIVELY.
   ELEMENT PART-1-1.15209 IS DISTORTING EXCESSIVELY.
   ELEMENT PART-1-1.15209 IS DISTORTING EXCESSIVELY.
   ELEMENT PART-1-1.15209 IS DISTORTING EXCESSIVELY.
   ELEMENT PART-1-1.15209 IS DISTORTING EXCESSIVELY.
   ELEMENT PART-1-1.15209 IS DISTORTING EXCESSIVELY.
   ELEMENT PART-1-1.15306 IS DISTORTING EXCESSIVELY.
   ELEMENT PART-1-1.15306 IS DISTORTING EXCESSIVELY.
   ELEMENT PART-1-1.15306 IS DISTORTING EXCESSIVELY.
   ELEMENT PART-1-1.15306 IS DISTORTING EXCESSIVELY.
   ELEMENT PART-1-1.15306 IS DISTORTING EXCESSIVELY.
   ELEMENT PART-1-1.15306 IS DISTORTING EXCESSIVELY.
   ELEMENT PART-1-1.15306 IS DISTORTING EXCESSIVELY.
   ELEMENT PART-1-1.15306 IS DISTORTING EXCESSIVELY.
   ELEMENT PART-1-1.15307 IS DISTORTING EXCESSIVELY.
   ELEMENT PART-1-1.15307 IS DISTORTING EXCESSIVELY.
   ELEMENT PART-1-1.15307 IS DISTORTING EXCESSIVELY.
   ELEMENT PART-1-1.15307 IS DISTORTING EXCESSIVELY.
   ELEMENT PART-1-1.15511 IS DISTORTING EXCESSIVELY.
   ELEMENT PART-1-1.15511 IS DISTORTING EXCESSIVELY.
   ELEMENT PART-1-1.15511 IS DISTORTING EXCESSIVELY.
   ELEMENT PART-1-1.15511 IS DISTORTING EXCESSIVELY.
   ELEMENT PART-1-1.15529 IS DISTORTING EXCESSIVELY.
   ELEMENT PART-1-1.15529 IS DISTORTING EXCESSIVELY.
   ELEMENT PART-1-1.15529 IS DISTORTING EXCESSIVELY.
   ELEMENT PART-1-1.15529 IS DISTORTING EXCESSIVELY.
   ELEMENT PART-1-1.15535 IS DISTORTING EXCESSIVELY.
   ELEMENT PART-1-1.15535 IS DISTORTING EXCESSIVELY.
   ELEMENT PART-1-1.15535 IS DISTORTING EXCESSIVELY.
   ELEMENT PART-1-1.15535 IS DISTORTING EXCESSIVELY.
   ELEMENT PART-1-1.15657 IS DISTORTING EXCESSIVELY.
   ELEMENT PART-1-1.15657 IS DISTORTING EXCESSIVELY.
   ELEMENT PART-1-1.15657 IS DISTORTING EXCESSIVELY.
   ELEMENT PART-1-1.15657 IS DISTORTING EXCESSIVELY.
   ELEMENT PART-1-1.15657 IS DISTORTING EXCESSIVELY.
   ELEMENT PART-1-1.15657 IS DISTORTING EXCESSIVELY.
   ELEMENT PART-1-1.15657 IS DISTORTING EXCESSIVELY.
   ELEMENT PART-1-1.15657 IS DISTORTING EXCESSIVELY.
   ELEMENT PART-1-1.15663 IS DISTORTING EXCESSIVELY.
   ELEMENT PART-1-1.15663 IS DISTORTING EXCESSIVELY.
   ELEMENT PART-1-1.15663 IS DISTORTING EXCESSIVELY.
   ELEMENT PART-1-1.15663 IS DISTORTING EXCESSIVELY.
   ELEMENT PART-1-1.15663 IS DISTORTING EXCESSIVELY.
   ELEMENT PART-1-1.15663 IS DISTORTING EXCESSIVELY.
   ELEMENT PART-1-1.15663 IS DISTORTING EXCESSIVELY.
   ELEMENT PART-1-1.15663 IS DISTORTING EXCESSIVELY.
   ELEMENT PART-1-1.15784 IS DISTORTING EXCESSIVELY.
   ELEMENT PART-1-1.15784 IS DISTORTING EXCESSIVELY.
   ELEMENT PART-1-1.15784 IS DISTORTING EXCESSIVELY.
   ELEMENT PART-1-1.15784 IS DISTORTING EXCESSIVELY.
   ELEMENT PART-1-1.15784 IS DISTORTING EXCESSIVELY.
   ELEMENT PART-1-1.15784 IS DISTORTING EXCESSIVELY.
   ELEMENT PART-1-1.15784 IS DISTORTING EXCESSIVELY.
   ELEMENT PART-1-1.15784 IS DISTORTING EXCESSIVELY.
   ELEMENT PART-1-1.15820 IS DISTORTING EXCESSIVELY.
   ELEMENT PART-1-1.15820 IS DISTORTING EXCESSIVELY.
   ELEMENT PART-1-1.15821 IS DISTORTING EXCESSIVELY.
   ELEMENT PART-1-1.15821 IS DISTORTING EXCESSIVELY.
   ELEMENT PART-1-1.15821 IS DISTORTING EXCESSIVELY.
   ELEMENT PART-1-1.15821 IS DISTORTING EXCESSIVELY.
   ELEMENT PART-1-1.15821 IS DISTORTING EXCESSIVELY.
   ELEMENT PART-1-1.15821 IS DISTORTING EXCESSIVELY.
   ELEMENT PART-1-1.15899 IS DISTORTING EXCESSIVELY.
   ELEMENT PART-1-1.15899 IS DISTORTING EXCESSIVELY.
   ELEMENT PART-1-1.15899 IS DISTORTING EXCESSIVELY.
   ELEMENT PART-1-1.15899 IS DISTORTING EXCESSIVELY.
   ELEMENT PART-1-1.15899 IS DISTORTING EXCESSIVELY.
   ELEMENT PART-1-1.15899 IS DISTORTING EXCESSIVELY.
   ELEMENT PART-1-1.15899 IS DISTORTING EXCESSIVELY.
   ELEMENT PART-1-1.15899 IS DISTORTING EXCESSIVELY.
   ELEMENT PART-1-1.15900 IS DISTORTING EXCESSIVELY.
   ELEMENT PART-1-1.15900 IS DISTORTING EXCESSIVELY.
   ELEMENT PART-1-1.15900 IS DISTORTING EXCESSIVELY.
   ELEMENT PART-1-1.15900 IS DISTORTING EXCESSIVELY.
   ELEMENT PART-1-1.15900 IS DISTORTING EXCESSIVELY.
   ELEMENT PART-1-1.15900 IS DISTORTING EXCESSIVELY.
   ELEMENT PART-1-1.15900 IS DISTORTING EXCESSIVELY.
   ELEMENT PART-1-1.15900 IS DISTORTING EXCESSIVELY.
   ELEMENT PART-1-1.15901 IS DISTORTING EXCESSIVELY.
   ELEMENT PART-1-1.15901 IS DISTORTING EXCESSIVELY.
   ELEMENT PART-1-1.15901 IS DISTORTING EXCESSIVELY.
   ELEMENT PART-1-1.15901 IS DISTORTING EXCESSIVELY.
   ELEMENT PART-1-1.15901 IS DISTORTING EXCESSIVELY.
   ELEMENT PART-1-1.15901 IS DISTORTING EXCESSIVELY.
   ELEMENT PART-1-1.15901 IS DISTORTING EXCESSIVELY.
   ELEMENT PART-1-1.15901 IS DISTORTING EXCESSIVELY.
   ELEMENT PART-1-1.16064 IS DISTORTING EXCESSIVELY.
   ELEMENT PART-1-1.16064 IS DISTORTING EXCESSIVELY.
   ELEMENT PART-1-1.16064 IS DISTORTING EXCESSIVELY.
   ELEMENT PART-1-1.16064 IS DISTORTING EXCESSIVELY.
   ELEMENT PART-1-1.16064 IS DISTORTING EXCESSIVELY.
   ELEMENT PART-1-1.16064 IS DISTORTING EXCESSIVELY.
   ELEMENT PART-1-1.16064 IS DISTORTING EXCESSIVELY.
   ELEMENT PART-1-1.16064 IS DISTORTING EXCESSIVELY.
   ELEMENT PART-1-1.16089 IS DISTORTING EXCESSIVELY.
   ELEMENT PART-1-1.16089 IS DISTORTING EXCESSIVELY.
   ELEMENT PART-1-1.16089 IS DISTORTING EXCESSIVELY.
   ELEMENT PART-1-1.16089 IS DISTORTING EXCESSIVELY.
   ELEMENT PART-1-1.16089 IS DISTORTING EXCESSIVELY.
   ELEMENT PART-1-1.16089 IS DISTORTING EXCESSIVELY.
   ELEMENT PART-1-1.16089 IS DISTORTING EXCESSIVELY.
   ELEMENT PART-1-1.16089 IS DISTORTING EXCESSIVELY.
   ELEMENT PART-1-1.16094 IS DISTORTING EXCESSIVELY.
   ELEMENT PART-1-1.16094 IS DISTORTING EXCESSIVELY.
   ELEMENT PART-1-1.16095 IS DISTORTING EXCESSIVELY.
   ELEMENT PART-1-1.16095 IS DISTORTING EXCESSIVELY.
   ELEMENT PART-1-1.16095 IS DISTORTING EXCESSIVELY.
   ELEMENT PART-1-1.16095 IS DISTORTING EXCESSIVELY.
   ELEMENT PART-1-1.16095 IS DISTORTING EXCESSIVELY.
   ELEMENT PART-1-1.16095 IS DISTORTING EXCESSIVELY.
   ELEMENT PART-1-1.16095 IS DISTORTING EXCESSIVELY.
   ELEMENT PART-1-1.16095 IS DISTORTING EXCESSIVELY.
   ELEMENT PART-1-1.16229 IS DISTORTING EXCESSIVELY.
   ELEMENT PART-1-1.16229 IS DISTORTING EXCESSIVELY.
   ELEMENT PART-1-1.16229 IS DISTORTING EXCESSIVELY.
   ELEMENT PART-1-1.16229 IS DISTORTING EXCESSIVELY.
   ELEMENT PART-1-1.16229 IS DISTORTING EXCESSIVELY.
   ELEMENT PART-1-1.16229 IS DISTORTING EXCESSIVELY.
   ELEMENT PART-1-1.16229 IS DISTORTING EXCESSIVELY.
   ELEMENT PART-1-1.16229 IS DISTORTING EXCESSIVELY.
   ELEMENT PART-1-1.16319 IS DISTORTING EXCESSIVELY.
   ELEMENT PART-1-1.16319 IS DISTORTING EXCESSIVELY.
   ELEMENT PART-1-1.16319 IS DISTORTING EXCESSIVELY.
   ELEMENT PART-1-1.16319 IS DISTORTING EXCESSIVELY.
   ELEMENT PART-1-1.16319 IS DISTORTING EXCESSIVELY.
   ELEMENT PART-1-1.16319 IS DISTORTING EXCESSIVELY.
   ELEMENT PART-1-1.16319 IS DISTORTING EXCESSIVELY.
   ELEMENT PART-1-1.16320 IS DISTORTING EXCESSIVELY.
   ELEMENT PART-1-1.16320 IS DISTORTING EXCESSIVELY.
   ELEMENT PART-1-1.16320 IS DISTORTING EXCESSIVELY.
   ELEMENT PART-1-1.16320 IS DISTORTING EXCESSIVELY.
   ELEMENT PART-1-1.16320 IS DISTORTING EXCESSIVELY.
   ELEMENT PART-1-1.16320 IS DISTORTING EXCESSIVELY.
   ELEMENT PART-1-1.16320 IS DISTORTING EXCESSIVELY.
   ELEMENT PART-1-1.16320 IS DISTORTING EXCESSIVELY.
   ELEMENT PART-1-1.16459 IS DISTORTING EXCESSIVELY.
   ELEMENT PART-1-1.16459 IS DISTORTING EXCESSIVELY.
   ELEMENT PART-1-1.16459 IS DISTORTING EXCESSIVELY.
   ELEMENT PART-1-1.16459 IS DISTORTING EXCESSIVELY.
   ELEMENT PART-1-1.16459 IS DISTORTING EXCESSIVELY.
   ELEMENT PART-1-1.16459 IS DISTORTING EXCESSIVELY.
   ELEMENT PART-1-1.16459 IS DISTORTING EXCESSIVELY.
   ELEMENT PART-1-1.16459 IS DISTORTING EXCESSIVELY.
   ELEMENT PART-1-1.16460 IS DISTORTING EXCESSIVELY.
   ELEMENT PART-1-1.16460 IS DISTORTING EXCESSIVELY.
   ELEMENT PART-1-1.16460 IS DISTORTING EXCESSIVELY.
   ELEMENT PART-1-1.16460 IS DISTORTING EXCESSIVELY.
   ELEMENT PART-1-1.16460 IS DISTORTING EXCESSIVELY.
   ELEMENT PART-1-1.16460 IS DISTORTING EXCESSIVELY.
   ELEMENT PART-1-1.16460 IS DISTORTING EXCESSIVELY.
   ELEMENT PART-1-1.16460 IS DISTORTING EXCESSIVELY.
   ELEMENT PART-1-1.16461 IS DISTORTING EXCESSIVELY.
   ELEMENT PART-1-1.16461 IS DISTORTING EXCESSIVELY.
   ELEMENT PART-1-1.16461 IS DISTORTING EXCESSIVELY.
   ELEMENT PART-1-1.16461 IS DISTORTING EXCESSIVELY.
   ELEMENT PART-1-1.16461 IS DISTORTING EXCESSIVELY.
   ELEMENT PART-1-1.16461 IS DISTORTING EXCESSIVELY.
   ELEMENT PART-1-1.16599 IS DISTORTING EXCESSIVELY.
   ELEMENT PART-1-1.16599 IS DISTORTING EXCESSIVELY.
   ELEMENT PART-1-1.16599 IS DISTORTING EXCESSIVELY.
   ELEMENT PART-1-1.16599 IS DISTORTING EXCESSIVELY.
   ELEMENT PART-1-1.16599 IS DISTORTING EXCESSIVELY.
   ELEMENT PART-1-1.16599 IS DISTORTING EXCESSIVELY.
   ELEMENT PART-1-1.16599 IS DISTORTING EXCESSIVELY.
   ELEMENT PART-1-1.16599 IS DISTORTING EXCESSIVELY.
   ELEMENT PART-1-1.16600 IS DISTORTING EXCESSIVELY.
   ELEMENT PART-1-1.16600 IS DISTORTING EXCESSIVELY.
   ELEMENT PART-1-1.16600 IS DISTORTING EXCESSIVELY.
   ELEMENT PART-1-1.16600 IS DISTORTING EXCESSIVELY.
   ELEMENT PART-1-1.16600 IS DISTORTING EXCESSIVELY.
   ELEMENT PART-1-1.16600 IS DISTORTING EXCESSIVELY.
   ELEMENT PART-1-1.16600 IS DISTORTING EXCESSIVELY.
   ELEMENT PART-1-1.16600 IS DISTORTING EXCESSIVELY.
   ELEMENT PART-1-1.16673 IS DISTORTING EXCESSIVELY.
   ELEMENT PART-1-1.16673 IS DISTORTING EXCESSIVELY.
   ELEMENT PART-1-1.16673 IS DISTORTING EXCESSIVELY.
   ELEMENT PART-1-1.16673 IS DISTORTING EXCESSIVELY.
   ELEMENT PART-1-1.16673 IS DISTORTING EXCESSIVELY.
   ELEMENT PART-1-1.16673 IS DISTORTING EXCESSIVELY.
   ELEMENT PART-1-1.16673 IS DISTORTING EXCESSIVELY.
   ELEMENT PART-1-1.16673 IS DISTORTING EXCESSIVELY.
   ELEMENT PART-1-1.16674 IS DISTORTING EXCESSIVELY.
   ELEMENT PART-1-1.16674 IS DISTORTING EXCESSIVELY.
   ELEMENT PART-1-1.16764 IS DISTORTING EXCESSIVELY.
   ELEMENT PART-1-1.16764 IS DISTORTING EXCESSIVELY.
   ELEMENT PART-1-1.16764 IS DISTORTING EXCESSIVELY.
   ELEMENT PART-1-1.16764 IS DISTORTING EXCESSIVELY.
   ELEMENT PART-1-1.16764 IS DISTORTING EXCESSIVELY.
   ELEMENT PART-1-1.16764 IS DISTORTING EXCESSIVELY.
   ELEMENT PART-1-1.16764 IS DISTORTING EXCESSIVELY.
   ELEMENT PART-1-1.16764 IS DISTORTING EXCESSIVELY.
   ELEMENT PART-1-1.16813 IS DISTORTING EXCESSIVELY.
   ELEMENT PART-1-1.16813 IS DISTORTING EXCESSIVELY.
   ELEMENT PART-1-1.16813 IS DISTORTING EXCESSIVELY.
   ELEMENT PART-1-1.16813 IS DISTORTING EXCESSIVELY.
   ELEMENT PART-1-1.16813 IS DISTORTING EXCESSIVELY.
   ELEMENT PART-1-1.16813 IS DISTORTING EXCESSIVELY.
   ELEMENT PART-1-1.16813 IS DISTORTING EXCESSIVELY.
   ELEMENT PART-1-1.16813 IS DISTORTING EXCESSIVELY.
   ELEMENT PART-1-1.16814 IS DISTORTING EXCESSIVELY.
   ELEMENT PART-1-1.16814 IS DISTORTING EXCESSIVELY.
   ELEMENT PART-1-1.16814 IS DISTORTING EXCESSIVELY.
   ELEMENT PART-1-1.16904 IS DISTORTING EXCESSIVELY.
   ELEMENT PART-1-1.16904 IS DISTORTING EXCESSIVELY.
   ELEMENT PART-1-1.16904 IS DISTORTING EXCESSIVELY.
   ELEMENT PART-1-1.16923 IS DISTORTING EXCESSIVELY.
   ELEMENT PART-1-1.16923 IS DISTORTING EXCESSIVELY.
   ELEMENT PART-1-1.16923 IS DISTORTING EXCESSIVELY.
   ELEMENT PART-1-1.16923 IS DISTORTING EXCESSIVELY.
   ELEMENT PART-1-1.16923 IS DISTORTING EXCESSIVELY.
   ELEMENT PART-1-1.16923 IS DISTORTING EXCESSIVELY.
   ELEMENT PART-1-1.16923 IS DISTORTING EXCESSIVELY.
   ELEMENT PART-1-1.16923 IS DISTORTING EXCESSIVELY.
   ELEMENT PART-1-1.16975 IS DISTORTING EXCESSIVELY.
   ELEMENT PART-1-1.16975 IS DISTORTING EXCESSIVELY.
   ELEMENT PART-1-1.16975 IS DISTORTING EXCESSIVELY.
   ELEMENT PART-1-1.16975 IS DISTORTING EXCESSIVELY.
   ELEMENT PART-1-1.16976 IS DISTORTING EXCESSIVELY.
   ELEMENT PART-1-1.16976 IS DISTORTING EXCESSIVELY.
   ELEMENT PART-1-1.16976 IS DISTORTING EXCESSIVELY.
   ELEMENT PART-1-1.16976 IS DISTORTING EXCESSIVELY.
   ELEMENT PART-1-1.16976 IS DISTORTING EXCESSIVELY.
   ELEMENT PART-1-1.16976 IS DISTORTING EXCESSIVELY.
   ELEMENT PART-1-1.16976 IS DISTORTING EXCESSIVELY.
   ELEMENT PART-1-1.16976 IS DISTORTING EXCESSIVELY.
   ELEMENT PART-1-1.3330 IS DISTORTING EXCESSIVELY.
   ELEMENT PART-1-1.3330 IS DISTORTING EXCESSIVELY.
   ELEMENT PART-1-1.3331 IS DISTORTING EXCESSIVELY.
   ELEMENT PART-1-1.3331 IS DISTORTING EXCESSIVELY.
   ELEMENT PART-1-1.3331 IS DISTORTING EXCESSIVELY.
   ELEMENT PART-1-1.3331 IS DISTORTING EXCESSIVELY.
   ELEMENT PART-1-1.3331 IS DISTORTING EXCESSIVELY.
   ELEMENT PART-1-1.3331 IS DISTORTING EXCESSIVELY.
   ELEMENT PART-1-1.3331 IS DISTORTING EXCESSIVELY.
   ELEMENT PART-1-1.3331 IS DISTORTING EXCESSIVELY.
   ELEMENT PART-1-1.3464 IS DISTORTING EXCESSIVELY.
   ELEMENT PART-1-1.3464 IS DISTORTING EXCESSIVELY.
   ELEMENT PART-1-1.3464 IS DISTORTING EXCESSIVELY.
   ELEMENT PART-1-1.3464 IS DISTORTING EXCESSIVELY.
   ELEMENT PART-1-1.3464 IS DISTORTING EXCESSIVELY.
   ELEMENT PART-1-1.3464 IS DISTORTING EXCESSIVELY.
   ELEMENT PART-1-1.3464 IS DISTORTING EXCESSIVELY.
   ELEMENT PART-1-1.3464 IS DISTORTING EXCESSIVELY.
   ELEMENT PART-1-1.3500 IS DISTORTING EXCESSIVELY.
   ELEMENT PART-1-1.3500 IS DISTORTING EXCESSIVELY.
   ELEMENT PART-1-1.3500 IS DISTORTING EXCESSIVELY.
   ELEMENT PART-1-1.3500 IS DISTORTING EXCESSIVELY.
   ELEMENT PART-1-1.3501 IS DISTORTING EXCESSIVELY.
   ELEMENT PART-1-1.3501 IS DISTORTING EXCESSIVELY.
   ELEMENT PART-1-1.3501 IS DISTORTING EXCESSIVELY.
   ELEMENT PART-1-1.3501 IS DISTORTING EXCESSIVELY.
   ELEMENT PART-1-1.3501 IS DISTORTING EXCESSIVELY.
   ELEMENT PART-1-1.3501 IS DISTORTING EXCESSIVELY.
   ELEMENT PART-1-1.3501 IS DISTORTING EXCESSIVELY.
   ELEMENT PART-1-1.3501 IS DISTORTING EXCESSIVELY.
   ELEMENT PART-1-1.3604 IS DISTORTING EXCESSIVELY.
   ELEMENT PART-1-1.3604 IS DISTORTING EXCESSIVELY.
   ELEMENT PART-1-1.3604 IS DISTORTING EXCESSIVELY.
   ELEMENT PART-1-1.3634 IS DISTORTING EXCESSIVELY.
   ELEMENT PART-1-1.3634 IS DISTORTING EXCESSIVELY.
   ELEMENT PART-1-1.3634 IS DISTORTING EXCESSIVELY.
   ELEMENT PART-1-1.3634 IS DISTORTING EXCESSIVELY.
   ELEMENT PART-1-1.3634 IS DISTORTING EXCESSIVELY.
   ELEMENT PART-1-1.3634 IS DISTORTING EXCESSIVELY.
   ELEMENT PART-1-1.3634 IS DISTORTING EXCESSIVELY.
   ELEMENT PART-1-1.3634 IS DISTORTING EXCESSIVELY.
   ELEMENT PART-1-1.3635 IS DISTORTING EXCESSIVELY.
   ELEMENT PART-1-1.3635 IS DISTORTING EXCESSIVELY.
   ELEMENT PART-1-1.3635 IS DISTORTING EXCESSIVELY.
   ELEMENT PART-1-1.3635 IS DISTORTING EXCESSIVELY.
   ELEMENT PART-1-1.3635 IS DISTORTING EXCESSIVELY.
   ELEMENT PART-1-1.3635 IS DISTORTING EXCESSIVELY.
   ELEMENT PART-1-1.3635 IS DISTORTING EXCESSIVELY.
   ELEMENT PART-1-1.3635 IS DISTORTING EXCESSIVELY.
   ELEMENT PART-1-1.3640 IS DISTORTING EXCESSIVELY.
   ELEMENT PART-1-1.3640 IS DISTORTING EXCESSIVELY.
   ELEMENT PART-1-1.3640 IS DISTORTING EXCESSIVELY.
   ELEMENT PART-1-1.3640 IS DISTORTING EXCESSIVELY.
   ELEMENT PART-1-1.3640 IS DISTORTING EXCESSIVELY.
   ELEMENT PART-1-1.3640 IS DISTORTING EXCESSIVELY.
   ELEMENT PART-1-1.3640 IS DISTORTING EXCESSIVELY.
   ELEMENT PART-1-1.3640 IS DISTORTING EXCESSIVELY.
   ELEMENT PART-1-1.3786 IS DISTORTING EXCESSIVELY.
   ELEMENT PART-1-1.3786 IS DISTORTING EXCESSIVELY.
   ELEMENT PART-1-1.3787 IS DISTORTING EXCESSIVELY.
   ELEMENT PART-1-1.3787 IS DISTORTING EXCESSIVELY.
   ELEMENT PART-1-1.3787 IS DISTORTING EXCESSIVELY.
   ELEMENT PART-1-1.3787 IS DISTORTING EXCESSIVELY.
   ELEMENT PART-1-1.3787 IS DISTORTING EXCESSIVELY.
   ELEMENT PART-1-1.3787 IS DISTORTING EXCESSIVELY.
   ELEMENT PART-1-1.3787 IS DISTORTING EXCESSIVELY.
   ELEMENT PART-1-1.3787 IS DISTORTING EXCESSIVELY.
   ELEMENT PART-1-1.3897 IS DISTORTING EXCESSIVELY.
   ELEMENT PART-1-1.3897 IS DISTORTING EXCESSIVELY.
   ELEMENT PART-1-1.3897 IS DISTORTING EXCESSIVELY.
   ELEMENT PART-1-1.3897 IS DISTORTING EXCESSIVELY.
   ELEMENT PART-1-1.3897 IS DISTORTING EXCESSIVELY.
   ELEMENT PART-1-1.3897 IS DISTORTING EXCESSIVELY.
   ELEMENT PART-1-1.3897 IS DISTORTING EXCESSIVELY.
   ELEMENT PART-1-1.3897 IS DISTORTING EXCESSIVELY.
   ELEMENT PART-1-1.3903 IS DISTORTING EXCESSIVELY.
   ELEMENT PART-1-1.3903 IS DISTORTING EXCESSIVELY.
   ELEMENT PART-1-1.3903 IS DISTORTING EXCESSIVELY.
   ELEMENT PART-1-1.3903 IS DISTORTING EXCESSIVELY.
   ELEMENT PART-1-1.3903 IS DISTORTING EXCESSIVELY.
   ELEMENT PART-1-1.3903 IS DISTORTING EXCESSIVELY.
   ELEMENT PART-1-1.3903 IS DISTORTING EXCESSIVELY.
   ELEMENT PART-1-1.3903 IS DISTORTING EXCESSIVELY.
   ELEMENT PART-1-1.4001 IS DISTORTING EXCESSIVELY.
   ELEMENT PART-1-1.4001 IS DISTORTING EXCESSIVELY.
   ELEMENT PART-1-1.4001 IS DISTORTING EXCESSIVELY.
   ELEMENT PART-1-1.4001 IS DISTORTING EXCESSIVELY.
   ELEMENT PART-1-1.4001 IS DISTORTING EXCESSIVELY.
   ELEMENT PART-1-1.4001 IS DISTORTING EXCESSIVELY.
   ELEMENT PART-1-1.4001 IS DISTORTING EXCESSIVELY.
   ELEMENT PART-1-1.4001 IS DISTORTING EXCESSIVELY.
   ELEMENT PART-1-1.4037 IS DISTORTING EXCESSIVELY.
   ELEMENT PART-1-1.4037 IS DISTORTING EXCESSIVELY.
   ELEMENT PART-1-1.4037 IS DISTORTING EXCESSIVELY.
   ELEMENT PART-1-1.4037 IS DISTORTING EXCESSIVELY.
   ELEMENT PART-1-1.4067 IS DISTORTING EXCESSIVELY.
   ELEMENT PART-1-1.4067 IS DISTORTING EXCESSIVELY.
   ELEMENT PART-1-1.4067 IS DISTORTING EXCESSIVELY.
   ELEMENT PART-1-1.4067 IS DISTORTING EXCESSIVELY.
   ELEMENT PART-1-1.4067 IS DISTORTING EXCESSIVELY.
   ELEMENT PART-1-1.4067 IS DISTORTING EXCESSIVELY.
   ELEMENT PART-1-1.4067 IS DISTORTING EXCESSIVELY.
   ELEMENT PART-1-1.4067 IS DISTORTING EXCESSIVELY.
   ELEMENT PART-1-1.4164 IS DISTORTING EXCESSIVELY.
   ELEMENT PART-1-1.4164 IS DISTORTING EXCESSIVELY.
   ELEMENT PART-1-1.4164 IS DISTORTING EXCESSIVELY.
   ELEMENT PART-1-1.4164 IS DISTORTING EXCESSIVELY.
   ELEMENT PART-1-1.4164 IS DISTORTING EXCESSIVELY.
   ELEMENT PART-1-1.4164 IS DISTORTING EXCESSIVELY.
   ELEMENT PART-1-1.4164 IS DISTORTING EXCESSIVELY.
   ELEMENT PART-1-1.4164 IS DISTORTING EXCESSIVELY.
   ELEMENT PART-1-1.4194 IS DISTORTING EXCESSIVELY.
   ELEMENT PART-1-1.4194 IS DISTORTING EXCESSIVELY.
   ELEMENT PART-1-1.4195 IS DISTORTING EXCESSIVELY.
   ELEMENT PART-1-1.4195 IS DISTORTING EXCESSIVELY.
   ELEMENT PART-1-1.4195 IS DISTORTING EXCESSIVELY.
   ELEMENT PART-1-1.4195 IS DISTORTING EXCESSIVELY.
   ELEMENT PART-1-1.4195 IS DISTORTING EXCESSIVELY.
   ELEMENT PART-1-1.4195 IS DISTORTING EXCESSIVELY.
   ELEMENT PART-1-1.4195 IS DISTORTING EXCESSIVELY.
   ELEMENT PART-1-1.4195 IS DISTORTING EXCESSIVELY.
   ELEMENT PART-1-1.4200 IS DISTORTING EXCESSIVELY.
   ELEMENT PART-1-1.4200 IS DISTORTING EXCESSIVELY.
   ELEMENT PART-1-1.4245 IS DISTORTING EXCESSIVELY.
   ELEMENT PART-1-1.4245 IS DISTORTING EXCESSIVELY.
   ELEMENT PART-1-1.4246 IS DISTORTING EXCESSIVELY.
   ELEMENT PART-1-1.4246 IS DISTORTING EXCESSIVELY.
   ELEMENT PART-1-1.4246 IS DISTORTING EXCESSIVELY.
   ELEMENT PART-1-1.4246 IS DISTORTING EXCESSIVELY.
   ELEMENT PART-1-1.4246 IS DISTORTING EXCESSIVELY.
   ELEMENT PART-1-1.4246 IS DISTORTING EXCESSIVELY.
   ELEMENT PART-1-1.4246 IS DISTORTING EXCESSIVELY.
   ELEMENT PART-1-1.4246 IS DISTORTING EXCESSIVELY.
   ELEMENT PART-1-1.4247 IS DISTORTING EXCESSIVELY.
   ELEMENT PART-1-1.4247 IS DISTORTING EXCESSIVELY.
   ELEMENT PART-1-1.4247 IS DISTORTING EXCESSIVELY.
   ELEMENT PART-1-1.4247 IS DISTORTING EXCESSIVELY.
   ELEMENT PART-1-1.4377 IS DISTORTING EXCESSIVELY.
   ELEMENT PART-1-1.4377 IS DISTORTING EXCESSIVELY.
   ELEMENT PART-1-1.4377 IS DISTORTING EXCESSIVELY.
   ELEMENT PART-1-1.4419 IS DISTORTING EXCESSIVELY.
   ELEMENT PART-1-1.4419 IS DISTORTING EXCESSIVELY.
   ELEMENT PART-1-1.4419 IS DISTORTING EXCESSIVELY.
   ELEMENT PART-1-1.4419 IS DISTORTING EXCESSIVELY.
   ELEMENT PART-1-1.4419 IS DISTORTING EXCESSIVELY.
   ELEMENT PART-1-1.4419 IS DISTORTING EXCESSIVELY.
   ELEMENT PART-1-1.4419 IS DISTORTING EXCESSIVELY.
   ELEMENT PART-1-1.4419 IS DISTORTING EXCESSIVELY.
   ELEMENT PART-1-1.4420 IS DISTORTING EXCESSIVELY.
   ELEMENT PART-1-1.4420 IS DISTORTING EXCESSIVELY.
   ELEMENT PART-1-1.4420 IS DISTORTING EXCESSIVELY.
   ELEMENT PART-1-1.4420 IS DISTORTING EXCESSIVELY.
   ELEMENT PART-1-1.4420 IS DISTORTING EXCESSIVELY.
   ELEMENT PART-1-1.4420 IS DISTORTING EXCESSIVELY.
   ELEMENT PART-1-1.4420 IS DISTORTING EXCESSIVELY.
   ELEMENT PART-1-1.4420 IS DISTORTING EXCESSIVELY.
   ELEMENT PART-1-1.4655 IS DISTORTING EXCESSIVELY.
   ELEMENT PART-1-1.4655 IS DISTORTING EXCESSIVELY.
   ELEMENT PART-1-1.4655 IS DISTORTING EXCESSIVELY.
   ELEMENT PART-1-1.4655 IS DISTORTING EXCESSIVELY.
   ELEMENT PART-1-1.4655 IS DISTORTING EXCESSIVELY.
   ELEMENT PART-1-1.4656 IS DISTORTING EXCESSIVELY.
   ELEMENT PART-1-1.4656 IS DISTORTING EXCESSIVELY.
   ELEMENT PART-1-1.4656 IS DISTORTING EXCESSIVELY.
   ELEMENT PART-1-1.4656 IS DISTORTING EXCESSIVELY.
   ELEMENT PART-1-1.4656 IS DISTORTING EXCESSIVELY.
   ELEMENT PART-1-1.4656 IS DISTORTING EXCESSIVELY.
   ELEMENT PART-1-1.4656 IS DISTORTING EXCESSIVELY.
   ELEMENT PART-1-1.4656 IS DISTORTING EXCESSIVELY.
   ELEMENT PART-1-1.4877 IS DISTORTING EXCESSIVELY.
   ELEMENT PART-1-1.4877 IS DISTORTING EXCESSIVELY.
   ELEMENT PART-1-1.4889 IS DISTORTING EXCESSIVELY.
   ELEMENT PART-1-1.4889 IS DISTORTING EXCESSIVELY.
   ELEMENT PART-1-1.4895 IS DISTORTING EXCESSIVELY.
   ELEMENT PART-1-1.4895 IS DISTORTING EXCESSIVELY.
   ELEMENT PART-1-1.4946 IS DISTORTING EXCESSIVELY.
   ELEMENT PART-1-1.4946 IS DISTORTING EXCESSIVELY.
   ELEMENT PART-1-1.4946 IS DISTORTING EXCESSIVELY.
   ELEMENT PART-1-1.4946 IS DISTORTING EXCESSIVELY.
   ELEMENT PART-1-1.4946 IS DISTORTING EXCESSIVELY.
   ELEMENT PART-1-1.4946 IS DISTORTING EXCESSIVELY.
   ELEMENT PART-1-1.4946 IS DISTORTING EXCESSIVELY.
   ELEMENT PART-1-1.4946 IS DISTORTING EXCESSIVELY.
   ELEMENT PART-1-1.4947 IS DISTORTING EXCESSIVELY.
   ELEMENT PART-1-1.4947 IS DISTORTING EXCESSIVELY.
   ELEMENT PART-1-1.5053 IS DISTORTING EXCESSIVELY.
   ELEMENT PART-1-1.5053 IS DISTORTING EXCESSIVELY.
   ELEMENT PART-1-1.5356 IS DISTORTING EXCESSIVELY.
   ELEMENT PART-1-1.5356 IS DISTORTING EXCESSIVELY.
   ELEMENT PART-1-1.5356 IS DISTORTING EXCESSIVELY.
   ELEMENT PART-1-1.5356 IS DISTORTING EXCESSIVELY.
   ELEMENT PART-1-1.5356 IS DISTORTING EXCESSIVELY.
   ELEMENT PART-1-1.5539 IS DISTORTING EXCESSIVELY.
   ELEMENT PART-1-1.5539 IS DISTORTING EXCESSIVELY.
   ELEMENT PART-1-1.5539 IS DISTORTING EXCESSIVELY.
   ELEMENT PART-1-1.5539 IS DISTORTING EXCESSIVELY.
   ELEMENT PART-1-1.5539 IS DISTORTING EXCESSIVELY.
   ELEMENT PART-1-1.5539 IS DISTORTING EXCESSIVELY.
   ELEMENT PART-1-1.5539 IS DISTORTING EXCESSIVELY.
   ELEMENT PART-1-1.5539 IS DISTORTING EXCESSIVELY.
   ELEMENT PART-1-1.5540 IS DISTORTING EXCESSIVELY.
   ELEMENT PART-1-1.5540 IS DISTORTING EXCESSIVELY.
   ELEMENT PART-1-1.5540 IS DISTORTING EXCESSIVELY.
   ELEMENT PART-1-1.5540 IS DISTORTING EXCESSIVELY.
   ELEMENT PART-1-1.5540 IS DISTORTING EXCESSIVELY.
   ELEMENT PART-1-1.5540 IS DISTORTING EXCESSIVELY.
   ELEMENT PART-1-1.5540 IS DISTORTING EXCESSIVELY.
   ELEMENT PART-1-1.5540 IS DISTORTING EXCESSIVELY.
   ELEMENT PART-1-1.14779 IS DISTORTING EXCESSIVELY.
   ELEMENT PART-1-1.14779 IS DISTORTING EXCESSIVELY.
   ELEMENT PART-1-1.14779 IS DISTORTING EXCESSIVELY.
   ELEMENT PART-1-1.14779 IS DISTORTING EXCESSIVELY.
   ELEMENT PART-1-1.14780 IS DISTORTING EXCESSIVELY.
   ELEMENT PART-1-1.14780 IS DISTORTING EXCESSIVELY.
   ELEMENT PART-1-1.14780 IS DISTORTING EXCESSIVELY.
   ELEMENT PART-1-1.14780 IS DISTORTING EXCESSIVELY.
   ELEMENT PART-1-1.15091 IS DISTORTING EXCESSIVELY.
   ELEMENT PART-1-1.15091 IS DISTORTING EXCESSIVELY.
   ELEMENT PART-1-1.15091 IS DISTORTING EXCESSIVELY.
   ELEMENT PART-1-1.15091 IS DISTORTING EXCESSIVELY.
   ELEMENT PART-1-1.15115 IS DISTORTING EXCESSIVELY.
   ELEMENT PART-1-1.15115 IS DISTORTING EXCESSIVELY.
   ELEMENT PART-1-1.15199 IS DISTORTING EXCESSIVELY.
   ELEMENT PART-1-1.15199 IS DISTORTING EXCESSIVELY.
   ELEMENT PART-1-1.15199 IS DISTORTING EXCESSIVELY.
   ELEMENT PART-1-1.15199 IS DISTORTING EXCESSIVELY.
   ELEMENT PART-1-1.15199 IS DISTORTING EXCESSIVELY.
   ELEMENT PART-1-1.15199 IS DISTORTING EXCESSIVELY.
   ELEMENT PART-1-1.15199 IS DISTORTING EXCESSIVELY.
   ELEMENT PART-1-1.15199 IS DISTORTING EXCESSIVELY.
   ELEMENT PART-1-1.15200 IS DISTORTING EXCESSIVELY.
   ELEMENT PART-1-1.15200 IS DISTORTING EXCESSIVELY.
   ELEMENT PART-1-1.15200 IS DISTORTING EXCESSIVELY.
   ELEMENT PART-1-1.15200 IS DISTORTING EXCESSIVELY.
   ELEMENT PART-1-1.15200 IS DISTORTING EXCESSIVELY.
   ELEMENT PART-1-1.15200 IS DISTORTING EXCESSIVELY.
   ELEMENT PART-1-1.15200 IS DISTORTING EXCESSIVELY.
   ELEMENT PART-1-1.15200 IS DISTORTING EXCESSIVELY.
   ELEMENT PART-1-1.15371 IS DISTORTING EXCESSIVELY.
   ELEMENT PART-1-1.15371 IS DISTORTING EXCESSIVELY.
   ELEMENT PART-1-1.15371 IS DISTORTING EXCESSIVELY.
   ELEMENT PART-1-1.15371 IS DISTORTING EXCESSIVELY.
   ELEMENT PART-1-1.15413 IS DISTORTING EXCESSIVELY.
   ELEMENT PART-1-1.15413 IS DISTORTING EXCESSIVELY.
   ELEMENT PART-1-1.15413 IS DISTORTING EXCESSIVELY.
   ELEMENT PART-1-1.15413 IS DISTORTING EXCESSIVELY.
   ELEMENT PART-1-1.15523 IS DISTORTING EXCESSIVELY.
   ELEMENT PART-1-1.15523 IS DISTORTING EXCESSIVELY.
   ELEMENT PART-1-1.15523 IS DISTORTING EXCESSIVELY.
   ELEMENT PART-1-1.15523 IS DISTORTING EXCESSIVELY.
   ELEMENT PART-1-1.15575 IS DISTORTING EXCESSIVELY.
   ELEMENT PART-1-1.15576 IS DISTORTING EXCESSIVELY.
   ELEMENT PART-1-1.15576 IS DISTORTING EXCESSIVELY.
   ELEMENT PART-1-1.15576 IS DISTORTING EXCESSIVELY.
   ELEMENT PART-1-1.15576 IS DISTORTING EXCESSIVELY.
   ELEMENT PART-1-1.15576 IS DISTORTING EXCESSIVELY.
   ELEMENT PART-1-1.15576 IS DISTORTING EXCESSIVELY.
   ELEMENT PART-1-1.15576 IS DISTORTING EXCESSIVELY.
   ELEMENT PART-1-1.15576 IS DISTORTING EXCESSIVELY.
   ELEMENT PART-1-1.15693 IS DISTORTING EXCESSIVELY.
   ELEMENT PART-1-1.15693 IS DISTORTING EXCESSIVELY.
   ELEMENT PART-1-1.15693 IS DISTORTING EXCESSIVELY.
   ELEMENT PART-1-1.15693 IS DISTORTING EXCESSIVELY.
   ELEMENT PART-1-1.15693 IS DISTORTING EXCESSIVELY.
   ELEMENT PART-1-1.15693 IS DISTORTING EXCESSIVELY.
   ELEMENT PART-1-1.15693 IS DISTORTING EXCESSIVELY.
   ELEMENT PART-1-1.15693 IS DISTORTING EXCESSIVELY.
   ELEMENT PART-1-1.15759 IS DISTORTING EXCESSIVELY.
   ELEMENT PART-1-1.15759 IS DISTORTING EXCESSIVELY.
   ELEMENT PART-1-1.15759 IS DISTORTING EXCESSIVELY.
   ELEMENT PART-1-1.15759 IS DISTORTING EXCESSIVELY.
   ELEMENT PART-1-1.15759 IS DISTORTING EXCESSIVELY.
   ELEMENT PART-1-1.15759 IS DISTORTING EXCESSIVELY.
   ELEMENT PART-1-1.15759 IS DISTORTING EXCESSIVELY.
   ELEMENT PART-1-1.15759 IS DISTORTING EXCESSIVELY.
   ELEMENT PART-1-1.15760 IS DISTORTING EXCESSIVELY.
   ELEMENT PART-1-1.15760 IS DISTORTING EXCESSIVELY.
   ELEMENT PART-1-1.15760 IS DISTORTING EXCESSIVELY.
   ELEMENT PART-1-1.15760 IS DISTORTING EXCESSIVELY.
   ELEMENT PART-1-1.15760 IS DISTORTING EXCESSIVELY.
   ELEMENT PART-1-1.15760 IS DISTORTING EXCESSIVELY.
   ELEMENT PART-1-1.15760 IS DISTORTING EXCESSIVELY.
   ELEMENT PART-1-1.15760 IS DISTORTING EXCESSIVELY.
   ELEMENT PART-1-1.15855 IS DISTORTING EXCESSIVELY.
   ELEMENT PART-1-1.15855 IS DISTORTING EXCESSIVELY.
   ELEMENT PART-1-1.15855 IS DISTORTING EXCESSIVELY.
   ELEMENT PART-1-1.15855 IS DISTORTING EXCESSIVELY.
   ELEMENT PART-1-1.15855 IS DISTORTING EXCESSIVELY.
   ELEMENT PART-1-1.15855 IS DISTORTING EXCESSIVELY.
   ELEMENT PART-1-1.15855 IS DISTORTING EXCESSIVELY.
   ELEMENT PART-1-1.15855 IS DISTORTING EXCESSIVELY.
   ELEMENT PART-1-1.15856 IS DISTORTING EXCESSIVELY.
   ELEMENT PART-1-1.15856 IS DISTORTING EXCESSIVELY.
   ELEMENT PART-1-1.15856 IS DISTORTING EXCESSIVELY.
   ELEMENT PART-1-1.15856 IS DISTORTING EXCESSIVELY.
   ELEMENT PART-1-1.15856 IS DISTORTING EXCESSIVELY.
   ELEMENT PART-1-1.15856 IS DISTORTING EXCESSIVELY.
   ELEMENT PART-1-1.15856 IS DISTORTING EXCESSIVELY.
   ELEMENT PART-1-1.15856 IS DISTORTING EXCESSIVELY.
   ELEMENT PART-1-1.15955 IS DISTORTING EXCESSIVELY.
   ELEMENT PART-1-1.15955 IS DISTORTING EXCESSIVELY.
   ELEMENT PART-1-1.15955 IS DISTORTING EXCESSIVELY.
   ELEMENT PART-1-1.15955 IS DISTORTING EXCESSIVELY.
   ELEMENT PART-1-1.15995 IS DISTORTING EXCESSIVELY.
   ELEMENT PART-1-1.15995 IS DISTORTING EXCESSIVELY.
   ELEMENT PART-1-1.15995 IS DISTORTING EXCESSIVELY.
   ELEMENT PART-1-1.15995 IS DISTORTING EXCESSIVELY.
   ELEMENT PART-1-1.15995 IS DISTORTING EXCESSIVELY.
   ELEMENT PART-1-1.15995 IS DISTORTING EXCESSIVELY.
   ELEMENT PART-1-1.15995 IS DISTORTING EXCESSIVELY.
   ELEMENT PART-1-1.15995 IS DISTORTING EXCESSIVELY.
   ELEMENT PART-1-1.15996 IS DISTORTING EXCESSIVELY.
   ELEMENT PART-1-1.15996 IS DISTORTING EXCESSIVELY.
   ELEMENT PART-1-1.15996 IS DISTORTING EXCESSIVELY.
   ELEMENT PART-1-1.15996 IS DISTORTING EXCESSIVELY.
   ELEMENT PART-1-1.15996 IS DISTORTING EXCESSIVELY.
   ELEMENT PART-1-1.15996 IS DISTORTING EXCESSIVELY.
   ELEMENT PART-1-1.15996 IS DISTORTING EXCESSIVELY.
   ELEMENT PART-1-1.15996 IS DISTORTING EXCESSIVELY.
   ELEMENT PART-1-1.15997 IS DISTORTING EXCESSIVELY.
   ELEMENT PART-1-1.15997 IS DISTORTING EXCESSIVELY.
   ELEMENT PART-1-1.15997 IS DISTORTING EXCESSIVELY.
   ELEMENT PART-1-1.15997 IS DISTORTING EXCESSIVELY.
   ELEMENT PART-1-1.15997 IS DISTORTING EXCESSIVELY.
   ELEMENT PART-1-1.15997 IS DISTORTING EXCESSIVELY.
   ELEMENT PART-1-1.15997 IS DISTORTING EXCESSIVELY.
   ELEMENT PART-1-1.15997 IS DISTORTING EXCESSIVELY.
   ELEMENT PART-1-1.16137 IS DISTORTING EXCESSIVELY.
   ELEMENT PART-1-1.16137 IS DISTORTING EXCESSIVELY.
   ELEMENT PART-1-1.16137 IS DISTORTING EXCESSIVELY.
   ELEMENT PART-1-1.16137 IS DISTORTING EXCESSIVELY.
   ELEMENT PART-1-1.16137 IS DISTORTING EXCESSIVELY.
   ELEMENT PART-1-1.16137 IS DISTORTING EXCESSIVELY.
   ELEMENT PART-1-1.16137 IS DISTORTING EXCESSIVELY.
   ELEMENT PART-1-1.16137 IS DISTORTING EXCESSIVELY.
   ELEMENT PART-1-1.16210 IS DISTORTING EXCESSIVELY.
   ELEMENT PART-1-1.16210 IS DISTORTING EXCESSIVELY.
   ELEMENT PART-1-1.16211 IS DISTORTING EXCESSIVELY.
   ELEMENT PART-1-1.16211 IS DISTORTING EXCESSIVELY.
   ELEMENT PART-1-1.16211 IS DISTORTING EXCESSIVELY.
   ELEMENT PART-1-1.16211 IS DISTORTING EXCESSIVELY.
   ELEMENT PART-1-1.16211 IS DISTORTING EXCESSIVELY.
   ELEMENT PART-1-1.16211 IS DISTORTING EXCESSIVELY.
   ELEMENT PART-1-1.16211 IS DISTORTING EXCESSIVELY.
   ELEMENT PART-1-1.16211 IS DISTORTING EXCESSIVELY.
   ELEMENT PART-1-1.16329 IS DISTORTING EXCESSIVELY.
   ELEMENT PART-1-1.16329 IS DISTORTING EXCESSIVELY.
   ELEMENT PART-1-1.16329 IS DISTORTING EXCESSIVELY.
   ELEMENT PART-1-1.16329 IS DISTORTING EXCESSIVELY.
   ELEMENT PART-1-1.16329 IS DISTORTING EXCESSIVELY.
   ELEMENT PART-1-1.16329 IS DISTORTING EXCESSIVELY.
   ELEMENT PART-1-1.16363 IS DISTORTING EXCESSIVELY.
   ELEMENT PART-1-1.16363 IS DISTORTING EXCESSIVELY.
   ELEMENT PART-1-1.16363 IS DISTORTING EXCESSIVELY.
   ELEMENT PART-1-1.16363 IS DISTORTING EXCESSIVELY.
   ELEMENT PART-1-1.16363 IS DISTORTING EXCESSIVELY.
   ELEMENT PART-1-1.16363 IS DISTORTING EXCESSIVELY.
   ELEMENT PART-1-1.16363 IS DISTORTING EXCESSIVELY.
   ELEMENT PART-1-1.16363 IS DISTORTING EXCESSIVELY.
   ELEMENT PART-1-1.16426 IS DISTORTING EXCESSIVELY.
   ELEMENT PART-1-1.16426 IS DISTORTING EXCESSIVELY.
   ELEMENT PART-1-1.16426 IS DISTORTING EXCESSIVELY.
   ELEMENT PART-1-1.16426 IS DISTORTING EXCESSIVELY.
   ELEMENT PART-1-1.16469 IS DISTORTING EXCESSIVELY.
   ELEMENT PART-1-1.16469 IS DISTORTING EXCESSIVELY.
   ELEMENT PART-1-1.16469 IS DISTORTING EXCESSIVELY.
   ELEMENT PART-1-1.16469 IS DISTORTING EXCESSIVELY.
   ELEMENT PART-1-1.16469 IS DISTORTING EXCESSIVELY.
   ELEMENT PART-1-1.16469 IS DISTORTING EXCESSIVELY.
   ELEMENT PART-1-1.16469 IS DISTORTING EXCESSIVELY.
   ELEMENT PART-1-1.16469 IS DISTORTING EXCESSIVELY.
   ELEMENT PART-1-1.16470 IS DISTORTING EXCESSIVELY.
   ELEMENT PART-1-1.16470 IS DISTORTING EXCESSIVELY.
   ELEMENT PART-1-1.16470 IS DISTORTING EXCESSIVELY.
   ELEMENT PART-1-1.16470 IS DISTORTING EXCESSIVELY.
   ELEMENT PART-1-1.16470 IS DISTORTING EXCESSIVELY.
   ELEMENT PART-1-1.16470 IS DISTORTING EXCESSIVELY.
   ELEMENT PART-1-1.16470 IS DISTORTING EXCESSIVELY.
   ELEMENT PART-1-1.16470 IS DISTORTING EXCESSIVELY.
   ELEMENT PART-1-1.16555 IS DISTORTING EXCESSIVELY.
   ELEMENT PART-1-1.16555 IS DISTORTING EXCESSIVELY.
   ELEMENT PART-1-1.16555 IS DISTORTING EXCESSIVELY.
   ELEMENT PART-1-1.16555 IS DISTORTING EXCESSIVELY.
   ELEMENT PART-1-1.16555 IS DISTORTING EXCESSIVELY.
   ELEMENT PART-1-1.16555 IS DISTORTING EXCESSIVELY.
   ELEMENT PART-1-1.16555 IS DISTORTING EXCESSIVELY.
   ELEMENT PART-1-1.16555 IS DISTORTING EXCESSIVELY.
   ELEMENT PART-1-1.16556 IS DISTORTING EXCESSIVELY.
   ELEMENT PART-1-1.16556 IS DISTORTING EXCESSIVELY.
   ELEMENT PART-1-1.16556 IS DISTORTING EXCESSIVELY.
   ELEMENT PART-1-1.16556 IS DISTORTING EXCESSIVELY.
   ELEMENT PART-1-1.16556 IS DISTORTING EXCESSIVELY.
   ELEMENT PART-1-1.16556 IS DISTORTING EXCESSIVELY.
   ELEMENT PART-1-1.16556 IS DISTORTING EXCESSIVELY.
   ELEMENT PART-1-1.16556 IS DISTORTING EXCESSIVELY.
   ELEMENT PART-1-1.16557 IS DISTORTING EXCESSIVELY.
   ELEMENT PART-1-1.16557 IS DISTORTING EXCESSIVELY.
   ELEMENT PART-1-1.16557 IS DISTORTING EXCESSIVELY.
   ELEMENT PART-1-1.16557 IS DISTORTING EXCESSIVELY.
   ELEMENT PART-1-1.16557 IS DISTORTING EXCESSIVELY.
   ELEMENT PART-1-1.16557 IS DISTORTING EXCESSIVELY.
   ELEMENT PART-1-1.16557 IS DISTORTING EXCESSIVELY.
   ELEMENT PART-1-1.16705 IS DISTORTING EXCESSIVELY.
   ELEMENT PART-1-1.16705 IS DISTORTING EXCESSIVELY.
   ELEMENT PART-1-1.16706 IS DISTORTING EXCESSIVELY.
   ELEMENT PART-1-1.16706 IS DISTORTING EXCESSIVELY.
   ELEMENT PART-1-1.16706 IS DISTORTING EXCESSIVELY.
   ELEMENT PART-1-1.16706 IS DISTORTING EXCESSIVELY.
   ELEMENT PART-1-1.16706 IS DISTORTING EXCESSIVELY.
   ELEMENT PART-1-1.16706 IS DISTORTING EXCESSIVELY.
   ELEMENT PART-1-1.16706 IS DISTORTING EXCESSIVELY.
   ELEMENT PART-1-1.16706 IS DISTORTING EXCESSIVELY.
   ELEMENT PART-1-1.16707 IS DISTORTING EXCESSIVELY.
   ELEMENT PART-1-1.16707 IS DISTORTING EXCESSIVELY.
   ELEMENT PART-1-1.16794 IS DISTORTING EXCESSIVELY.
   ELEMENT PART-1-1.16794 IS DISTORTING EXCESSIVELY.
   ELEMENT PART-1-1.16794 IS DISTORTING EXCESSIVELY.
   ELEMENT PART-1-1.16794 IS DISTORTING EXCESSIVELY.
   ELEMENT PART-1-1.16795 IS DISTORTING EXCESSIVELY.
   ELEMENT PART-1-1.16795 IS DISTORTING EXCESSIVELY.
   ELEMENT PART-1-1.16795 IS DISTORTING EXCESSIVELY.
   ELEMENT PART-1-1.16795 IS DISTORTING EXCESSIVELY.
   ELEMENT PART-1-1.16795 IS DISTORTING EXCESSIVELY.
   ELEMENT PART-1-1.16795 IS DISTORTING EXCESSIVELY.
   ELEMENT PART-1-1.16795 IS DISTORTING EXCESSIVELY.
   ELEMENT PART-1-1.16795 IS DISTORTING EXCESSIVELY.
   ELEMENT PART-1-1.16800 IS DISTORTING EXCESSIVELY.
   ELEMENT PART-1-1.16800 IS DISTORTING EXCESSIVELY.
   ELEMENT PART-1-1.16800 IS DISTORTING EXCESSIVELY.
   ELEMENT PART-1-1.16800 IS DISTORTING EXCESSIVELY.
   ELEMENT PART-1-1.16917 IS DISTORTING EXCESSIVELY.
   ELEMENT PART-1-1.16917 IS DISTORTING EXCESSIVELY.
   ELEMENT PART-1-1.16917 IS DISTORTING EXCESSIVELY.
   ELEMENT PART-1-1.16917 IS DISTORTING EXCESSIVELY.
   ELEMENT PART-1-1.16917 IS DISTORTING EXCESSIVELY.
   ELEMENT PART-1-1.16917 IS DISTORTING EXCESSIVELY.
   ELEMENT PART-1-1.16917 IS DISTORTING EXCESSIVELY.
   ELEMENT PART-1-1.16917 IS DISTORTING EXCESSIVELY.
   ELEMENT PART-1-1.16953 IS DISTORTING EXCESSIVELY.
   ELEMENT PART-1-1.16953 IS DISTORTING EXCESSIVELY.
   ELEMENT PART-1-1.16953 IS DISTORTING EXCESSIVELY.
   ELEMENT PART-1-1.16953 IS DISTORTING EXCESSIVELY.
   ELEMENT PART-1-1.16953 IS DISTORTING EXCESSIVELY.
   ELEMENT PART-1-1.16953 IS DISTORTING EXCESSIVELY.
   ELEMENT PART-1-1.16953 IS DISTORTING EXCESSIVELY.
   ELEMENT PART-1-1.16953 IS DISTORTING EXCESSIVELY.
   ELEMENT PART-1-1.3057 IS DISTORTING EXCESSIVELY.
   ELEMENT PART-1-1.3057 IS DISTORTING EXCESSIVELY.
   ELEMENT PART-1-1.3057 IS DISTORTING EXCESSIVELY.
   ELEMENT PART-1-1.3057 IS DISTORTING EXCESSIVELY.
   ELEMENT PART-1-1.3057 IS DISTORTING EXCESSIVELY.
   ELEMENT PART-1-1.3057 IS DISTORTING EXCESSIVELY.
   ELEMENT PART-1-1.3057 IS DISTORTING EXCESSIVELY.
   ELEMENT PART-1-1.3057 IS DISTORTING EXCESSIVELY.
   ELEMENT PART-1-1.3063 IS DISTORTING EXCESSIVELY.
   ELEMENT PART-1-1.3063 IS DISTORTING EXCESSIVELY.
   ELEMENT PART-1-1.3063 IS DISTORTING EXCESSIVELY.
   ELEMENT PART-1-1.3063 IS DISTORTING EXCESSIVELY.
   ELEMENT PART-1-1.3063 IS DISTORTING EXCESSIVELY.
   ELEMENT PART-1-1.3063 IS DISTORTING EXCESSIVELY.
   ELEMENT PART-1-1.3063 IS DISTORTING EXCESSIVELY.
   ELEMENT PART-1-1.3063 IS DISTORTING EXCESSIVELY.
   ELEMENT PART-1-1.3069 IS DISTORTING EXCESSIVELY.
   ELEMENT PART-1-1.3069 IS DISTORTING EXCESSIVELY.
   ELEMENT PART-1-1.3069 IS DISTORTING EXCESSIVELY.
   ELEMENT PART-1-1.3069 IS DISTORTING EXCESSIVELY.
   ELEMENT PART-1-1.3069 IS DISTORTING EXCESSIVELY.
   ELEMENT PART-1-1.3069 IS DISTORTING EXCESSIVELY.
   ELEMENT PART-1-1.3069 IS DISTORTING EXCESSIVELY.
   ELEMENT PART-1-1.3069 IS DISTORTING EXCESSIVELY.
   ELEMENT PART-1-1.3074 IS DISTORTING EXCESSIVELY.
   ELEMENT PART-1-1.3074 IS DISTORTING EXCESSIVELY.
   ELEMENT PART-1-1.3074 IS DISTORTING EXCESSIVELY.
   ELEMENT PART-1-1.3074 IS DISTORTING EXCESSIVELY.
   ELEMENT PART-1-1.3074 IS DISTORTING EXCESSIVELY.
   ELEMENT PART-1-1.3074 IS DISTORTING EXCESSIVELY.
   ELEMENT PART-1-1.3074 IS DISTORTING EXCESSIVELY.
   ELEMENT PART-1-1.3074 IS DISTORTING EXCESSIVELY.
   ELEMENT PART-1-1.3075 IS DISTORTING EXCESSIVELY.
   ELEMENT PART-1-1.3075 IS DISTORTING EXCESSIVELY.
   ELEMENT PART-1-1.3075 IS DISTORTING EXCESSIVELY.
   ELEMENT PART-1-1.3075 IS DISTORTING EXCESSIVELY.
   ELEMENT PART-1-1.3075 IS DISTORTING EXCESSIVELY.
   ELEMENT PART-1-1.3075 IS DISTORTING EXCESSIVELY.
   ELEMENT PART-1-1.3075 IS DISTORTING EXCESSIVELY.
   ELEMENT PART-1-1.3075 IS DISTORTING EXCESSIVELY.
   ELEMENT PART-1-1.3080 IS DISTORTING EXCESSIVELY.
   ELEMENT PART-1-1.3080 IS DISTORTING EXCESSIVELY.
   ELEMENT PART-1-1.3080 IS DISTORTING EXCESSIVELY.
   ELEMENT PART-1-1.3080 IS DISTORTING EXCESSIVELY.
   ELEMENT PART-1-1.3080 IS DISTORTING EXCESSIVELY.
   ELEMENT PART-1-1.3080 IS DISTORTING EXCESSIVELY.
   ELEMENT PART-1-1.3080 IS DISTORTING EXCESSIVELY.
   ELEMENT PART-1-1.3080 IS DISTORTING EXCESSIVELY.
   ELEMENT PART-1-1.3161 IS DISTORTING EXCESSIVELY.
   ELEMENT PART-1-1.3161 IS DISTORTING EXCESSIVELY.
   ELEMENT PART-1-1.3161 IS DISTORTING EXCESSIVELY.
   ELEMENT PART-1-1.3161 IS DISTORTING EXCESSIVELY.
   ELEMENT PART-1-1.3161 IS DISTORTING EXCESSIVELY.
   ELEMENT PART-1-1.3161 IS DISTORTING EXCESSIVELY.
   ELEMENT PART-1-1.3197 IS DISTORTING EXCESSIVELY.
   ELEMENT PART-1-1.3197 IS DISTORTING EXCESSIVELY.
   ELEMENT PART-1-1.3197 IS DISTORTING EXCESSIVELY.
   ELEMENT PART-1-1.3197 IS DISTORTING EXCESSIVELY.
   ELEMENT PART-1-1.3197 IS DISTORTING EXCESSIVELY.
   ELEMENT PART-1-1.3197 IS DISTORTING EXCESSIVELY.
   ELEMENT PART-1-1.3197 IS DISTORTING EXCESSIVELY.
   ELEMENT PART-1-1.3197 IS DISTORTING EXCESSIVELY.
   ELEMENT PART-1-1.3209 IS DISTORTING EXCESSIVELY.
   ELEMENT PART-1-1.3209 IS DISTORTING EXCESSIVELY.
   ELEMENT PART-1-1.3209 IS DISTORTING EXCESSIVELY.
   ELEMENT PART-1-1.3209 IS DISTORTING EXCESSIVELY.
   ELEMENT PART-1-1.3209 IS DISTORTING EXCESSIVELY.
   ELEMENT PART-1-1.3209 IS DISTORTING EXCESSIVELY.
   ELEMENT PART-1-1.3209 IS DISTORTING EXCESSIVELY.
   ELEMENT PART-1-1.3209 IS DISTORTING EXCESSIVELY.
   ELEMENT PART-1-1.3214 IS DISTORTING EXCESSIVELY.
   ELEMENT PART-1-1.3214 IS DISTORTING EXCESSIVELY.
   ELEMENT PART-1-1.3214 IS DISTORTING EXCESSIVELY.
   ELEMENT PART-1-1.3214 IS DISTORTING EXCESSIVELY.
   ELEMENT PART-1-1.3215 IS DISTORTING EXCESSIVELY.
   ELEMENT PART-1-1.3215 IS DISTORTING EXCESSIVELY.
   ELEMENT PART-1-1.3215 IS DISTORTING EXCESSIVELY.
   ELEMENT PART-1-1.3215 IS DISTORTING EXCESSIVELY.
   ELEMENT PART-1-1.3215 IS DISTORTING EXCESSIVELY.
   ELEMENT PART-1-1.3215 IS DISTORTING EXCESSIVELY.
   ELEMENT PART-1-1.3215 IS DISTORTING EXCESSIVELY.
   ELEMENT PART-1-1.3215 IS DISTORTING EXCESSIVELY.
   ELEMENT PART-1-1.3337 IS DISTORTING EXCESSIVELY.
   ELEMENT PART-1-1.3337 IS DISTORTING EXCESSIVELY.
   ELEMENT PART-1-1.3337 IS DISTORTING EXCESSIVELY.
   ELEMENT PART-1-1.3337 IS DISTORTING EXCESSIVELY.
   ELEMENT PART-1-1.3337 IS DISTORTING EXCESSIVELY.
   ELEMENT PART-1-1.3337 IS DISTORTING EXCESSIVELY.
   ELEMENT PART-1-1.3337 IS DISTORTING EXCESSIVELY.
   ELEMENT PART-1-1.3337 IS DISTORTING EXCESSIVELY.
   ELEMENT PART-1-1.3343 IS DISTORTING EXCESSIVELY.
   ELEMENT PART-1-1.3343 IS DISTORTING EXCESSIVELY.
   ELEMENT PART-1-1.3343 IS DISTORTING EXCESSIVELY.
   ELEMENT PART-1-1.3343 IS DISTORTING EXCESSIVELY.
   ELEMENT PART-1-1.3343 IS DISTORTING EXCESSIVELY.
   ELEMENT PART-1-1.3343 IS DISTORTING EXCESSIVELY.
   ELEMENT PART-1-1.3343 IS DISTORTING EXCESSIVELY.
   ELEMENT PART-1-1.3343 IS DISTORTING EXCESSIVELY.
   ELEMENT PART-1-1.3441 IS DISTORTING EXCESSIVELY.
   ELEMENT PART-1-1.3441 IS DISTORTING EXCESSIVELY.
   ELEMENT PART-1-1.3441 IS DISTORTING EXCESSIVELY.
   ELEMENT PART-1-1.3441 IS DISTORTING EXCESSIVELY.
   ELEMENT PART-1-1.3441 IS DISTORTING EXCESSIVELY.
   ELEMENT PART-1-1.3441 IS DISTORTING EXCESSIVELY.
   ELEMENT PART-1-1.3483 IS DISTORTING EXCESSIVELY.
   ELEMENT PART-1-1.3483 IS DISTORTING EXCESSIVELY.
   ELEMENT PART-1-1.3483 IS DISTORTING EXCESSIVELY.
   ELEMENT PART-1-1.3483 IS DISTORTING EXCESSIVELY.
   ELEMENT PART-1-1.3483 IS DISTORTING EXCESSIVELY.
   ELEMENT PART-1-1.3483 IS DISTORTING EXCESSIVELY.
   ELEMENT PART-1-1.3483 IS DISTORTING EXCESSIVELY.
   ELEMENT PART-1-1.3483 IS DISTORTING EXCESSIVELY.
   ELEMENT PART-1-1.3535 IS DISTORTING EXCESSIVELY.
   ELEMENT PART-1-1.3535 IS DISTORTING EXCESSIVELY.
   ELEMENT PART-1-1.3535 IS DISTORTING EXCESSIVELY.
   ELEMENT PART-1-1.3535 IS DISTORTING EXCESSIVELY.
   ELEMENT PART-1-1.3535 IS DISTORTING EXCESSIVELY.
   ELEMENT PART-1-1.3535 IS DISTORTING EXCESSIVELY.
   ELEMENT PART-1-1.3535 IS DISTORTING EXCESSIVELY.
   ELEMENT PART-1-1.3535 IS DISTORTING EXCESSIVELY.
   ELEMENT PART-1-1.3536 IS DISTORTING EXCESSIVELY.
   ELEMENT PART-1-1.3536 IS DISTORTING EXCESSIVELY.
   ELEMENT PART-1-1.3536 IS DISTORTING EXCESSIVELY.
   ELEMENT PART-1-1.3536 IS DISTORTING EXCESSIVELY.
   ELEMENT PART-1-1.3536 IS DISTORTING EXCESSIVELY.
   ELEMENT PART-1-1.3536 IS DISTORTING EXCESSIVELY.
   ELEMENT PART-1-1.3536 IS DISTORTING EXCESSIVELY.
   ELEMENT PART-1-1.3536 IS DISTORTING EXCESSIVELY.
   ELEMENT PART-1-1.3653 IS DISTORTING EXCESSIVELY.
   ELEMENT PART-1-1.3653 IS DISTORTING EXCESSIVELY.
   ELEMENT PART-1-1.3653 IS DISTORTING EXCESSIVELY.
   ELEMENT PART-1-1.3653 IS DISTORTING EXCESSIVELY.
   ELEMENT PART-1-1.3653 IS DISTORTING EXCESSIVELY.
   ELEMENT PART-1-1.3653 IS DISTORTING EXCESSIVELY.
   ELEMENT PART-1-1.3653 IS DISTORTING EXCESSIVELY.
   ELEMENT PART-1-1.3653 IS DISTORTING EXCESSIVELY.
   ELEMENT PART-1-1.3744 IS DISTORTING EXCESSIVELY.
   ELEMENT PART-1-1.3744 IS DISTORTING EXCESSIVELY.
   ELEMENT PART-1-1.3744 IS DISTORTING EXCESSIVELY.
   ELEMENT PART-1-1.3757 IS DISTORTING EXCESSIVELY.
   ELEMENT PART-1-1.3757 IS DISTORTING EXCESSIVELY.
   ELEMENT PART-1-1.3757 IS DISTORTING EXCESSIVELY.
   ELEMENT PART-1-1.3757 IS DISTORTING EXCESSIVELY.
   ELEMENT PART-1-1.3757 IS DISTORTING EXCESSIVELY.
   ELEMENT PART-1-1.3757 IS DISTORTING EXCESSIVELY.
   ELEMENT PART-1-1.3757 IS DISTORTING EXCESSIVELY.
   ELEMENT PART-1-1.3757 IS DISTORTING EXCESSIVELY.
   ELEMENT PART-1-1.3815 IS DISTORTING EXCESSIVELY.
   ELEMENT PART-1-1.3815 IS DISTORTING EXCESSIVELY.
   ELEMENT PART-1-1.3815 IS DISTORTING EXCESSIVELY.
   ELEMENT PART-1-1.3815 IS DISTORTING EXCESSIVELY.
   ELEMENT PART-1-1.3816 IS DISTORTING EXCESSIVELY.
   ELEMENT PART-1-1.3816 IS DISTORTING EXCESSIVELY.
   ELEMENT PART-1-1.3816 IS DISTORTING EXCESSIVELY.
   ELEMENT PART-1-1.3816 IS DISTORTING EXCESSIVELY.
   ELEMENT PART-1-1.3816 IS DISTORTING EXCESSIVELY.
   ELEMENT PART-1-1.3816 IS DISTORTING EXCESSIVELY.
   ELEMENT PART-1-1.3816 IS DISTORTING EXCESSIVELY.
   ELEMENT PART-1-1.3816 IS DISTORTING EXCESSIVELY.
   ELEMENT PART-1-1.3909 IS DISTORTING EXCESSIVELY.
   ELEMENT PART-1-1.3909 IS DISTORTING EXCESSIVELY.
   ELEMENT PART-1-1.3909 IS DISTORTING EXCESSIVELY.
   ELEMENT PART-1-1.3909 IS DISTORTING EXCESSIVELY.
   ELEMENT PART-1-1.3909 IS DISTORTING EXCESSIVELY.
   ELEMENT PART-1-1.3909 IS DISTORTING EXCESSIVELY.
   ELEMENT PART-1-1.3909 IS DISTORTING EXCESSIVELY.
   ELEMENT PART-1-1.3909 IS DISTORTING EXCESSIVELY.
   ELEMENT PART-1-1.3965 IS DISTORTING EXCESSIVELY.
   ELEMENT PART-1-1.3965 IS DISTORTING EXCESSIVELY.
   ELEMENT PART-1-1.3966 IS DISTORTING EXCESSIVELY.
   ELEMENT PART-1-1.3966 IS DISTORTING EXCESSIVELY.
   ELEMENT PART-1-1.3966 IS DISTORTING EXCESSIVELY.
   ELEMENT PART-1-1.3966 IS DISTORTING EXCESSIVELY.
   ELEMENT PART-1-1.3966 IS DISTORTING EXCESSIVELY.
   ELEMENT PART-1-1.3966 IS DISTORTING EXCESSIVELY.
   ELEMENT PART-1-1.3966 IS DISTORTING EXCESSIVELY.
   ELEMENT PART-1-1.3966 IS DISTORTING EXCESSIVELY.
   ELEMENT PART-1-1.3967 IS DISTORTING EXCESSIVELY.
   ELEMENT PART-1-1.3967 IS DISTORTING EXCESSIVELY.
   ELEMENT PART-1-1.3967 IS DISTORTING EXCESSIVELY.
   ELEMENT PART-1-1.3967 IS DISTORTING EXCESSIVELY.
   ELEMENT PART-1-1.4043 IS DISTORTING EXCESSIVELY.
   ELEMENT PART-1-1.4043 IS DISTORTING EXCESSIVELY.
   ELEMENT PART-1-1.4043 IS DISTORTING EXCESSIVELY.
   ELEMENT PART-1-1.4043 IS DISTORTING EXCESSIVELY.
   ELEMENT PART-1-1.4073 IS DISTORTING EXCESSIVELY.
   ELEMENT PART-1-1.4073 IS DISTORTING EXCESSIVELY.
   ELEMENT PART-1-1.4073 IS DISTORTING EXCESSIVELY.
   ELEMENT PART-1-1.4073 IS DISTORTING EXCESSIVELY.
   ELEMENT PART-1-1.4073 IS DISTORTING EXCESSIVELY.
   ELEMENT PART-1-1.4073 IS DISTORTING EXCESSIVELY.
   ELEMENT PART-1-1.4073 IS DISTORTING EXCESSIVELY.
   ELEMENT PART-1-1.4073 IS DISTORTING EXCESSIVELY.
   ELEMENT PART-1-1.4074 IS DISTORTING EXCESSIVELY.
   ELEMENT PART-1-1.4074 IS DISTORTING EXCESSIVELY.
   ELEMENT PART-1-1.4074 IS DISTORTING EXCESSIVELY.
   ELEMENT PART-1-1.4074 IS DISTORTING EXCESSIVELY.
   ELEMENT PART-1-1.4170 IS DISTORTING EXCESSIVELY.
   ELEMENT PART-1-1.4170 IS DISTORTING EXCESSIVELY.
   ELEMENT PART-1-1.4170 IS DISTORTING EXCESSIVELY.
   ELEMENT PART-1-1.4170 IS DISTORTING EXCESSIVELY.
   ELEMENT PART-1-1.4170 IS DISTORTING EXCESSIVELY.
   ELEMENT PART-1-1.4170 IS DISTORTING EXCESSIVELY.
   ELEMENT PART-1-1.4171 IS DISTORTING EXCESSIVELY.
   ELEMENT PART-1-1.4171 IS DISTORTING EXCESSIVELY.
   ELEMENT PART-1-1.4171 IS DISTORTING EXCESSIVELY.
   ELEMENT PART-1-1.4171 IS DISTORTING EXCESSIVELY.
   ELEMENT PART-1-1.4171 IS DISTORTING EXCESSIVELY.
   ELEMENT PART-1-1.4171 IS DISTORTING EXCESSIVELY.
   ELEMENT PART-1-1.4171 IS DISTORTING EXCESSIVELY.
   ELEMENT PART-1-1.4171 IS DISTORTING EXCESSIVELY.
   ELEMENT PART-1-1.4235 IS DISTORTING EXCESSIVELY.
   ELEMENT PART-1-1.4235 IS DISTORTING EXCESSIVELY.
   ELEMENT PART-1-1.4235 IS DISTORTING EXCESSIVELY.
   ELEMENT PART-1-1.4235 IS DISTORTING EXCESSIVELY.
   ELEMENT PART-1-1.4235 IS DISTORTING EXCESSIVELY.
   ELEMENT PART-1-1.4235 IS DISTORTING EXCESSIVELY.
   ELEMENT PART-1-1.4235 IS DISTORTING EXCESSIVELY.
   ELEMENT PART-1-1.4235 IS DISTORTING EXCESSIVELY.
   ELEMENT PART-1-1.4236 IS DISTORTING EXCESSIVELY.
   ELEMENT PART-1-1.4236 IS DISTORTING EXCESSIVELY.
   ELEMENT PART-1-1.4236 IS DISTORTING EXCESSIVELY.
   ELEMENT PART-1-1.4236 IS DISTORTING EXCESSIVELY.
   ELEMENT PART-1-1.4236 IS DISTORTING EXCESSIVELY.
   ELEMENT PART-1-1.4236 IS DISTORTING EXCESSIVELY.
   ELEMENT PART-1-1.4236 IS DISTORTING EXCESSIVELY.
   ELEMENT PART-1-1.4236 IS DISTORTING EXCESSIVELY.
   ELEMENT PART-1-1.4237 IS DISTORTING EXCESSIVELY.
   ELEMENT PART-1-1.4237 IS DISTORTING EXCESSIVELY.
   ELEMENT PART-1-1.4237 IS DISTORTING EXCESSIVELY.
   ELEMENT PART-1-1.4237 IS DISTORTING EXCESSIVELY.
   ELEMENT PART-1-1.4237 IS DISTORTING EXCESSIVELY.
   ELEMENT PART-1-1.4237 IS DISTORTING EXCESSIVELY.
   ELEMENT PART-1-1.4237 IS DISTORTING EXCESSIVELY.
   ELEMENT PART-1-1.4237 IS DISTORTING EXCESSIVELY.
   ELEMENT PART-1-1.4457 IS DISTORTING EXCESSIVELY.
   ELEMENT PART-1-1.4457 IS DISTORTING EXCESSIVELY.
   ELEMENT PART-1-1.4457 IS DISTORTING EXCESSIVELY.
   ELEMENT PART-1-1.4457 IS DISTORTING EXCESSIVELY.
   ELEMENT PART-1-1.4463 IS DISTORTING EXCESSIVELY.
   ELEMENT PART-1-1.4463 IS DISTORTING EXCESSIVELY.
   ELEMENT PART-1-1.4463 IS DISTORTING EXCESSIVELY.
   ELEMENT PART-1-1.4463 IS DISTORTING EXCESSIVELY.
   ELEMENT PART-1-1.4597 IS DISTORTING EXCESSIVELY.
   ELEMENT PART-1-1.4597 IS DISTORTING EXCESSIVELY.
   ELEMENT PART-1-1.4609 IS DISTORTING EXCESSIVELY.
   ELEMENT PART-1-1.4609 IS DISTORTING EXCESSIVELY.
   ELEMENT PART-1-1.4615 IS DISTORTING EXCESSIVELY.
   ELEMENT PART-1-1.4615 IS DISTORTING EXCESSIVELY.
   ELEMENT PART-1-1.4709 IS DISTORTING EXCESSIVELY.
   ELEMENT PART-1-1.4709 IS DISTORTING EXCESSIVELY.
   ELEMENT PART-1-1.4709 IS DISTORTING EXCESSIVELY.
   ELEMENT PART-1-1.4709 IS DISTORTING EXCESSIVELY.
   ELEMENT PART-1-1.4709 IS DISTORTING EXCESSIVELY.
   ELEMENT PART-1-1.4709 IS DISTORTING EXCESSIVELY.
   ELEMENT PART-1-1.4709 IS DISTORTING EXCESSIVELY.
   ELEMENT PART-1-1.4709 IS DISTORTING EXCESSIVELY.
   ELEMENT PART-1-1.4841 IS DISTORTING EXCESSIVELY.
   ELEMENT PART-1-1.4841 IS DISTORTING EXCESSIVELY.
   ELEMENT PART-1-1.4841 IS DISTORTING EXCESSIVELY.
   ELEMENT PART-1-1.4883 IS DISTORTING EXCESSIVELY.
   ELEMENT PART-1-1.4883 IS DISTORTING EXCESSIVELY.
[...]
   ELEMENT PART-1-1.4279 IS DISTORTING EXCESSIVELY.
   ELEMENT PART-1-1.4279 IS DISTORTING EXCESSIVELY.
   ELEMENT PART-1-1.4279 IS DISTORTING EXCESSIVELY.
   ELEMENT PART-1-1.4279 IS DISTORTING EXCESSIVELY.
   ELEMENT PART-1-1.4279 IS DISTORTING EXCESSIVELY.
   ELEMENT PART-1-1.4279 IS DISTORTING EXCESSIVELY.
   ELEMENT PART-1-1.4279 IS DISTORTING EXCESSIVELY.
   ELEMENT PART-1-1.4279 IS DISTORTING EXCESSIVELY.
   ELEMENT PART-1-1.4280 IS DISTORTING EXCESSIVELY.
   ELEMENT PART-1-1.4280 IS DISTORTING EXCESSIVELY.
   ELEMENT PART-1-1.4280 IS DISTORTING EXCESSIVELY.
   ELEMENT PART-1-1.4280 IS DISTORTING EXCESSIVELY.
   ELEMENT PART-1-1.4280 IS DISTORTING EXCESSIVELY.
   ELEMENT PART-1-1.4280 IS DISTORTING EXCESSIVELY.
   ELEMENT PART-1-1.4280 IS DISTORTING EXCESSIVELY.
   ELEMENT PART-1-1.4280 IS DISTORTING EXCESSIVELY.
   ELEMENT PART-1-1.4377 IS DISTORTING EXCESSIVELY.
   ELEMENT PART-1-1.4377 IS DISTORTING EXCESSIVELY.
   ELEMENT PART-1-1.4377 IS DISTORTING EXCESSIVELY.
   ELEMENT PART-1-1.4386 IS DISTORTING EXCESSIVELY.
   ELEMENT PART-1-1.4386 IS DISTORTING EXCESSIVELY.
   ELEMENT PART-1-1.4386 IS DISTORTING EXCESSIVELY.
   ELEMENT PART-1-1.4386 IS DISTORTING EXCESSIVELY.
   ELEMENT PART-1-1.4457 IS DISTORTING EXCESSIVELY.
   ELEMENT PART-1-1.4457 IS DISTORTING EXCESSIVELY.
   ELEMENT PART-1-1.4457 IS DISTORTING EXCESSIVELY.
   ELEMENT PART-1-1.4457 IS DISTORTING EXCESSIVELY.
   ELEMENT PART-1-1.4463 IS DISTORTING EXCESSIVELY.
   ELEMENT PART-1-1.4463 IS DISTORTING EXCESSIVELY.
   ELEMENT PART-1-1.4463 IS DISTORTING EXCESSIVELY.
   ELEMENT PART-1-1.4463 IS DISTORTING EXCESSIVELY.
   ELEMENT PART-1-1.4603 IS DISTORTING EXCESSIVELY.
   ELEMENT PART-1-1.4603 IS DISTORTING EXCESSIVELY.
   ELEMENT PART-1-1.4627 IS DISTORTING EXCESSIVELY.
   ELEMENT PART-1-1.4627 IS DISTORTING EXCESSIVELY.
   ELEMENT PART-1-1.4655 IS DISTORTING EXCESSIVELY.
   ELEMENT PART-1-1.4655 IS DISTORTING EXCESSIVELY.
   ELEMENT PART-1-1.4655 IS DISTORTING EXCESSIVELY.
   ELEMENT PART-1-1.4655 IS DISTORTING EXCESSIVELY.
   ELEMENT PART-1-1.4655 IS DISTORTING EXCESSIVELY.
   ELEMENT PART-1-1.4656 IS DISTORTING EXCESSIVELY.
   ELEMENT PART-1-1.4656 IS DISTORTING EXCESSIVELY.
   ELEMENT PART-1-1.4656 IS DISTORTING EXCESSIVELY.
   ELEMENT PART-1-1.4656 IS DISTORTING EXCESSIVELY.
   ELEMENT PART-1-1.4656 IS DISTORTING EXCESSIVELY.
   ELEMENT PART-1-1.4656 IS DISTORTING EXCESSIVELY.
   ELEMENT PART-1-1.4656 IS DISTORTING EXCESSIVELY.
   ELEMENT PART-1-1.4656 IS DISTORTING EXCESSIVELY.
   ELEMENT PART-1-1.4877 IS DISTORTING EXCESSIVELY.
   ELEMENT PART-1-1.4877 IS DISTORTING EXCESSIVELY.
   ELEMENT PART-1-1.4883 IS DISTORTING EXCESSIVELY.
   ELEMENT PART-1-1.4883 IS DISTORTING EXCESSIVELY.
   ELEMENT PART-1-1.4907 IS DISTORTING EXCESSIVELY.
   ELEMENT PART-1-1.4907 IS DISTORTING EXCESSIVELY.
   ELEMENT PART-1-1.4937 IS DISTORTING EXCESSIVELY.
   ELEMENT PART-1-1.4937 IS DISTORTING EXCESSIVELY.
   ELEMENT PART-1-1.4937 IS DISTORTING EXCESSIVELY.
   ELEMENT PART-1-1.4937 IS DISTORTING EXCESSIVELY.
   ELEMENT PART-1-1.4937 IS DISTORTING EXCESSIVELY.
   ELEMENT PART-1-1.4937 IS DISTORTING EXCESSIVELY.
   ELEMENT PART-1-1.4937 IS DISTORTING EXCESSIVELY.
   ELEMENT PART-1-1.4937 IS DISTORTING EXCESSIVELY.
   ELEMENT PART-1-1.5035 IS DISTORTING EXCESSIVELY.
   ELEMENT PART-1-1.5035 IS DISTORTING EXCESSIVELY.
   ELEMENT PART-1-1.5035 IS DISTORTING EXCESSIVELY.
   ELEMENT PART-1-1.5035 IS DISTORTING EXCESSIVELY.
   ELEMENT PART-1-1.5259 IS DISTORTING EXCESSIVELY.
   ELEMENT PART-1-1.5259 IS DISTORTING EXCESSIVELY.
   ELEMENT PART-1-1.5259 IS DISTORTING EXCESSIVELY.
   ELEMENT PART-1-1.5259 IS DISTORTING EXCESSIVELY.
   ELEMENT PART-1-1.5259 IS DISTORTING EXCESSIVELY.
   ELEMENT PART-1-1.5259 IS DISTORTING EXCESSIVELY.
   ELEMENT PART-1-1.5259 IS DISTORTING EXCESSIVELY.
   ELEMENT PART-1-1.5259 IS DISTORTING EXCESSIVELY.
   ELEMENT PART-1-1.5260 IS DISTORTING EXCESSIVELY.
   ELEMENT PART-1-1.5260 IS DISTORTING EXCESSIVELY.
   ELEMENT PART-1-1.5260 IS DISTORTING EXCESSIVELY.
   ELEMENT PART-1-1.5260 IS DISTORTING EXCESSIVELY.
   ELEMENT PART-1-1.5260 IS DISTORTING EXCESSIVELY.
   ELEMENT PART-1-1.5260 IS DISTORTING EXCESSIVELY.
   ELEMENT PART-1-1.5260 IS DISTORTING EXCESSIVELY.
   ELEMENT PART-1-1.5260 IS DISTORTING EXCESSIVELY.
   ELEMENT PART-1-1.14359 IS DISTORTING EXCESSIVELY.
   ELEMENT PART-1-1.14359 IS DISTORTING EXCESSIVELY.
   ELEMENT PART-1-1.14359 IS DISTORTING EXCESSIVELY.
   ELEMENT PART-1-1.14359 IS DISTORTING EXCESSIVELY.
   ELEMENT PART-1-1.14359 IS DISTORTING EXCESSIVELY.
   ELEMENT PART-1-1.14359 IS DISTORTING EXCESSIVELY.
   ELEMENT PART-1-1.14359 IS DISTORTING EXCESSIVELY.
   ELEMENT PART-1-1.14359 IS DISTORTING EXCESSIVELY.
   ELEMENT PART-1-1.14360 IS DISTORTING EXCESSIVELY.
   ELEMENT PART-1-1.14360 IS DISTORTING EXCESSIVELY.
   ELEMENT PART-1-1.14360 IS DISTORTING EXCESSIVELY.
   ELEMENT PART-1-1.14360 IS DISTORTING EXCESSIVELY.
   ELEMENT PART-1-1.14360 IS DISTORTING EXCESSIVELY.
   ELEMENT PART-1-1.14360 IS DISTORTING EXCESSIVELY.
   ELEMENT PART-1-1.14360 IS DISTORTING EXCESSIVELY.
   ELEMENT PART-1-1.14360 IS DISTORTING EXCESSIVELY.
   ELEMENT PART-1-1.14596 IS DISTORTING EXCESSIVELY.
   ELEMENT PART-1-1.14596 IS DISTORTING EXCESSIVELY.
   ELEMENT PART-1-1.14596 IS DISTORTING EXCESSIVELY.
   ELEMENT PART-1-1.14596 IS DISTORTING EXCESSIVELY.
   ELEMENT PART-1-1.14596 IS DISTORTING EXCESSIVELY.
   ELEMENT PART-1-1.14596 IS DISTORTING EXCESSIVELY.
   ELEMENT PART-1-1.14596 IS DISTORTING EXCESSIVELY.
   ELEMENT PART-1-1.14596 IS DISTORTING EXCESSIVELY.
   ELEMENT PART-1-1.14963 IS DISTORTING EXCESSIVELY.
   ELEMENT PART-1-1.14963 IS DISTORTING EXCESSIVELY.
   ELEMENT PART-1-1.14963 IS DISTORTING EXCESSIVELY.
   ELEMENT PART-1-1.14963 IS DISTORTING EXCESSIVELY.
   ELEMENT PART-1-1.15017 IS DISTORTING EXCESSIVELY.
   ELEMENT PART-1-1.15059 IS DISTORTING EXCESSIVELY.
   ELEMENT PART-1-1.15059 IS DISTORTING EXCESSIVELY.
   ELEMENT PART-1-1.15059 IS DISTORTING EXCESSIVELY.
   ELEMENT PART-1-1.15059 IS DISTORTING EXCESSIVELY.
   ELEMENT PART-1-1.15059 IS DISTORTING EXCESSIVELY.
   ELEMENT PART-1-1.15059 IS DISTORTING EXCESSIVELY.
   ELEMENT PART-1-1.15059 IS DISTORTING EXCESSIVELY.
   ELEMENT PART-1-1.15059 IS DISTORTING EXCESSIVELY.
   ELEMENT PART-1-1.15060 IS DISTORTING EXCESSIVELY.
   ELEMENT PART-1-1.15060 IS DISTORTING EXCESSIVELY.
   ELEMENT PART-1-1.15060 IS DISTORTING EXCESSIVELY.
   ELEMENT PART-1-1.15060 IS DISTORTING EXCESSIVELY.
   ELEMENT PART-1-1.15060 IS DISTORTING EXCESSIVELY.
   ELEMENT PART-1-1.15060 IS DISTORTING EXCESSIVELY.
   ELEMENT PART-1-1.15060 IS DISTORTING EXCESSIVELY.
   ELEMENT PART-1-1.15060 IS DISTORTING EXCESSIVELY.
   ELEMENT PART-1-1.15061 IS DISTORTING EXCESSIVELY.
   ELEMENT PART-1-1.15061 IS DISTORTING EXCESSIVELY.
   ELEMENT PART-1-1.15061 IS DISTORTING EXCESSIVELY.
   ELEMENT PART-1-1.15349 IS DISTORTING EXCESSIVELY.
   ELEMENT PART-1-1.15349 IS DISTORTING EXCESSIVELY.
   ELEMENT PART-1-1.15349 IS DISTORTING EXCESSIVELY.
   ELEMENT PART-1-1.15349 IS DISTORTING EXCESSIVELY.
   ELEMENT PART-1-1.15349 IS DISTORTING EXCESSIVELY.
   ELEMENT PART-1-1.15349 IS DISTORTING EXCESSIVELY.
   ELEMENT PART-1-1.15349 IS DISTORTING EXCESSIVELY.
   ELEMENT PART-1-1.15389 IS DISTORTING EXCESSIVELY.
   ELEMENT PART-1-1.15389 IS DISTORTING EXCESSIVELY.
   ELEMENT PART-1-1.15446 IS DISTORTING EXCESSIVELY.
   ELEMENT PART-1-1.15446 IS DISTORTING EXCESSIVELY.
   ELEMENT PART-1-1.15446 IS DISTORTING EXCESSIVELY.
   ELEMENT PART-1-1.15446 IS DISTORTING EXCESSIVELY.
   ELEMENT PART-1-1.15446 IS DISTORTING EXCESSIVELY.
   ELEMENT PART-1-1.15446 IS DISTORTING EXCESSIVELY.
   ELEMENT PART-1-1.15446 IS DISTORTING EXCESSIVELY.
   ELEMENT PART-1-1.15446 IS DISTORTING EXCESSIVELY.
   ELEMENT PART-1-1.15447 IS DISTORTING EXCESSIVELY.
   ELEMENT PART-1-1.15447 IS DISTORTING EXCESSIVELY.
   ELEMENT PART-1-1.15619 IS DISTORTING EXCESSIVELY.
   ELEMENT PART-1-1.15619 IS DISTORTING EXCESSIVELY.
   ELEMENT PART-1-1.15619 IS DISTORTING EXCESSIVELY.
   ELEMENT PART-1-1.15619 IS DISTORTING EXCESSIVELY.
   ELEMENT PART-1-1.15619 IS DISTORTING EXCESSIVELY.
   ELEMENT PART-1-1.15619 IS DISTORTING EXCESSIVELY.
   ELEMENT PART-1-1.15619 IS DISTORTING EXCESSIVELY.
   ELEMENT PART-1-1.15619 IS DISTORTING EXCESSIVELY.
   ELEMENT PART-1-1.15620 IS DISTORTING EXCESSIVELY.
   ELEMENT PART-1-1.15620 IS DISTORTING EXCESSIVELY.
   ELEMENT PART-1-1.15620 IS DISTORTING EXCESSIVELY.
   ELEMENT PART-1-1.15620 IS DISTORTING EXCESSIVELY.
   ELEMENT PART-1-1.15620 IS DISTORTING EXCESSIVELY.
   ELEMENT PART-1-1.15620 IS DISTORTING EXCESSIVELY.
   ELEMENT PART-1-1.15620 IS DISTORTING EXCESSIVELY.
   ELEMENT PART-1-1.15620 IS DISTORTING EXCESSIVELY.
   ELEMENT PART-1-1.15769 IS DISTORTING EXCESSIVELY.
   ELEMENT PART-1-1.15769 IS DISTORTING EXCESSIVELY.
   ELEMENT PART-1-1.15769 IS DISTORTING EXCESSIVELY.
   ELEMENT PART-1-1.15769 IS DISTORTING EXCESSIVELY.
   ELEMENT PART-1-1.15769 IS DISTORTING EXCESSIVELY.
   ELEMENT PART-1-1.15769 IS DISTORTING EXCESSIVELY.
   ELEMENT PART-1-1.15769 IS DISTORTING EXCESSIVELY.
   ELEMENT PART-1-1.15769 IS DISTORTING EXCESSIVELY.
   ELEMENT PART-1-1.15770 IS DISTORTING EXCESSIVELY.
   ELEMENT PART-1-1.15770 IS DISTORTING EXCESSIVELY.
   ELEMENT PART-1-1.15770 IS DISTORTING EXCESSIVELY.
   ELEMENT PART-1-1.15770 IS DISTORTING EXCESSIVELY.
   ELEMENT PART-1-1.15770 IS DISTORTING EXCESSIVELY.
   ELEMENT PART-1-1.15826 IS DISTORTING EXCESSIVELY.
   ELEMENT PART-1-1.15826 IS DISTORTING EXCESSIVELY.
   ELEMENT PART-1-1.15827 IS DISTORTING EXCESSIVELY.
   ELEMENT PART-1-1.15827 IS DISTORTING EXCESSIVELY.
   ELEMENT PART-1-1.15827 IS DISTORTING EXCESSIVELY.
   ELEMENT PART-1-1.15827 IS DISTORTING EXCESSIVELY.
   ELEMENT PART-1-1.15827 IS DISTORTING EXCESSIVELY.
   ELEMENT PART-1-1.15827 IS DISTORTING EXCESSIVELY.
   ELEMENT PART-1-1.15827 IS DISTORTING EXCESSIVELY.
   ELEMENT PART-1-1.15827 IS DISTORTING EXCESSIVELY.
   ELEMENT PART-1-1.15924 IS DISTORTING EXCESSIVELY.
   ELEMENT PART-1-1.15924 IS DISTORTING EXCESSIVELY.
   ELEMENT PART-1-1.15924 IS DISTORTING EXCESSIVELY.
   ELEMENT PART-1-1.15924 IS DISTORTING EXCESSIVELY.
   ELEMENT PART-1-1.15924 IS DISTORTING EXCESSIVELY.
   ELEMENT PART-1-1.15924 IS DISTORTING EXCESSIVELY.
   ELEMENT PART-1-1.15924 IS DISTORTING EXCESSIVELY.
   ELEMENT PART-1-1.15924 IS DISTORTING EXCESSIVELY.
   ELEMENT PART-1-1.15955 IS DISTORTING EXCESSIVELY.
   ELEMENT PART-1-1.15955 IS DISTORTING EXCESSIVELY.
   ELEMENT PART-1-1.15955 IS DISTORTING EXCESSIVELY.
   ELEMENT PART-1-1.15955 IS DISTORTING EXCESSIVELY.
   ELEMENT PART-1-1.15995 IS DISTORTING EXCESSIVELY.
   ELEMENT PART-1-1.15995 IS DISTORTING EXCESSIVELY.
   ELEMENT PART-1-1.15995 IS DISTORTING EXCESSIVELY.
   ELEMENT PART-1-1.15995 IS DISTORTING EXCESSIVELY.
   ELEMENT PART-1-1.15995 IS DISTORTING EXCESSIVELY.
   ELEMENT PART-1-1.15995 IS DISTORTING EXCESSIVELY.
   ELEMENT PART-1-1.15995 IS DISTORTING EXCESSIVELY.
   ELEMENT PART-1-1.15995 IS DISTORTING EXCESSIVELY.
   ELEMENT PART-1-1.15996 IS DISTORTING EXCESSIVELY.
   ELEMENT PART-1-1.15996 IS DISTORTING EXCESSIVELY.
   ELEMENT PART-1-1.15996 IS DISTORTING EXCESSIVELY.
   ELEMENT PART-1-1.15996 IS DISTORTING EXCESSIVELY.
   ELEMENT PART-1-1.15996 IS DISTORTING EXCESSIVELY.
   ELEMENT PART-1-1.15996 IS DISTORTING EXCESSIVELY.
   ELEMENT PART-1-1.15996 IS DISTORTING EXCESSIVELY.
   ELEMENT PART-1-1.15996 IS DISTORTING EXCESSIVELY.
   ELEMENT PART-1-1.15997 IS DISTORTING EXCESSIVELY.
   ELEMENT PART-1-1.15997 IS DISTORTING EXCESSIVELY.
   ELEMENT PART-1-1.15997 IS DISTORTING EXCESSIVELY.
   ELEMENT PART-1-1.15997 IS DISTORTING EXCESSIVELY.
   ELEMENT PART-1-1.15997 IS DISTORTING EXCESSIVELY.
   ELEMENT PART-1-1.15997 IS DISTORTING EXCESSIVELY.
   ELEMENT PART-1-1.15997 IS DISTORTING EXCESSIVELY.
   ELEMENT PART-1-1.15997 IS DISTORTING EXCESSIVELY.
   ELEMENT PART-1-1.16137 IS DISTORTING EXCESSIVELY.
   ELEMENT PART-1-1.16137 IS DISTORTING EXCESSIVELY.
   ELEMENT PART-1-1.16137 IS DISTORTING EXCESSIVELY.
   ELEMENT PART-1-1.16137 IS DISTORTING EXCESSIVELY.
   ELEMENT PART-1-1.16137 IS DISTORTING EXCESSIVELY.
   ELEMENT PART-1-1.16137 IS DISTORTING EXCESSIVELY.
   ELEMENT PART-1-1.16137 IS DISTORTING EXCESSIVELY.
   ELEMENT PART-1-1.16137 IS DISTORTING EXCESSIVELY.
   ELEMENT PART-1-1.16210 IS DISTORTING EXCESSIVELY.
   ELEMENT PART-1-1.16210 IS DISTORTING EXCESSIVELY.
   ELEMENT PART-1-1.16211 IS DISTORTING EXCESSIVELY.
   ELEMENT PART-1-1.16211 IS DISTORTING EXCESSIVELY.
   ELEMENT PART-1-1.16211 IS DISTORTING EXCESSIVELY.
   ELEMENT PART-1-1.16211 IS DISTORTING EXCESSIVELY.
   ELEMENT PART-1-1.16211 IS DISTORTING EXCESSIVELY.
   ELEMENT PART-1-1.16211 IS DISTORTING EXCESSIVELY.
   ELEMENT PART-1-1.16211 IS DISTORTING EXCESSIVELY.
   ELEMENT PART-1-1.16211 IS DISTORTING EXCESSIVELY.
   ELEMENT PART-1-1.16319 IS DISTORTING EXCESSIVELY.
   ELEMENT PART-1-1.16319 IS DISTORTING EXCESSIVELY.
   ELEMENT PART-1-1.16319 IS DISTORTING EXCESSIVELY.
   ELEMENT PART-1-1.16319 IS DISTORTING EXCESSIVELY.
   ELEMENT PART-1-1.16319 IS DISTORTING EXCESSIVELY.
   ELEMENT PART-1-1.16319 IS DISTORTING EXCESSIVELY.
   ELEMENT PART-1-1.16319 IS DISTORTING EXCESSIVELY.
   ELEMENT PART-1-1.16320 IS DISTORTING EXCESSIVELY.
   ELEMENT PART-1-1.16320 IS DISTORTING EXCESSIVELY.
   ELEMENT PART-1-1.16320 IS DISTORTING EXCESSIVELY.
   ELEMENT PART-1-1.16320 IS DISTORTING EXCESSIVELY.
   ELEMENT PART-1-1.16320 IS DISTORTING EXCESSIVELY.
   ELEMENT PART-1-1.16320 IS DISTORTING EXCESSIVELY.
   ELEMENT PART-1-1.16320 IS DISTORTING EXCESSIVELY.
   ELEMENT PART-1-1.16320 IS DISTORTING EXCESSIVELY.
   ELEMENT PART-1-1.16459 IS DISTORTING EXCESSIVELY.
   ELEMENT PART-1-1.16459 IS DISTORTING EXCESSIVELY.
   ELEMENT PART-1-1.16459 IS DISTORTING EXCESSIVELY.
   ELEMENT PART-1-1.16459 IS DISTORTING EXCESSIVELY.
   ELEMENT PART-1-1.16459 IS DISTORTING EXCESSIVELY.
   ELEMENT PART-1-1.16459 IS DISTORTING EXCESSIVELY.
   ELEMENT PART-1-1.16459 IS DISTORTING EXCESSIVELY.
   ELEMENT PART-1-1.16459 IS DISTORTING EXCESSIVELY.
   ELEMENT PART-1-1.16460 IS DISTORTING EXCESSIVELY.
   ELEMENT PART-1-1.16460 IS DISTORTING EXCESSIVELY.
   ELEMENT PART-1-1.16460 IS DISTORTING EXCESSIVELY.
   ELEMENT PART-1-1.16460 IS DISTORTING EXCESSIVELY.
   ELEMENT PART-1-1.16460 IS DISTORTING EXCESSIVELY.
   ELEMENT PART-1-1.16460 IS DISTORTING EXCESSIVELY.
   ELEMENT PART-1-1.16460 IS DISTORTING EXCESSIVELY.
   ELEMENT PART-1-1.16460 IS DISTORTING EXCESSIVELY.
   ELEMENT PART-1-1.16461 IS DISTORTING EXCESSIVELY.
   ELEMENT PART-1-1.16461 IS DISTORTING EXCESSIVELY.
   ELEMENT PART-1-1.16461 IS DISTORTING EXCESSIVELY.
   ELEMENT PART-1-1.16461 IS DISTORTING EXCESSIVELY.
   ELEMENT PART-1-1.16461 IS DISTORTING EXCESSIVELY.
   ELEMENT PART-1-1.16461 IS DISTORTING EXCESSIVELY.
   ELEMENT PART-1-1.16599 IS DISTORTING EXCESSIVELY.
   ELEMENT PART-1-1.16599 IS DISTORTING EXCESSIVELY.
   ELEMENT PART-1-1.16599 IS DISTORTING EXCESSIVELY.
   ELEMENT PART-1-1.16599 IS DISTORTING EXCESSIVELY.
   ELEMENT PART-1-1.16599 IS DISTORTING EXCESSIVELY.
   ELEMENT PART-1-1.16599 IS DISTORTING EXCESSIVELY.
   ELEMENT PART-1-1.16599 IS DISTORTING EXCESSIVELY.
   ELEMENT PART-1-1.16599 IS DISTORTING EXCESSIVELY.
   ELEMENT PART-1-1.16600 IS DISTORTING EXCESSIVELY.
   ELEMENT PART-1-1.16600 IS DISTORTING EXCESSIVELY.
   ELEMENT PART-1-1.16600 IS DISTORTING EXCESSIVELY.
   ELEMENT PART-1-1.16600 IS DISTORTING EXCESSIVELY.
   ELEMENT PART-1-1.16600 IS DISTORTING EXCESSIVELY.
   ELEMENT PART-1-1.16600 IS DISTORTING EXCESSIVELY.
   ELEMENT PART-1-1.16600 IS DISTORTING EXCESSIVELY.
   ELEMENT PART-1-1.16600 IS DISTORTING EXCESSIVELY.
   ELEMENT PART-1-1.16667 IS DISTORTING EXCESSIVELY.
   ELEMENT PART-1-1.16667 IS DISTORTING EXCESSIVELY.
   ELEMENT PART-1-1.16667 IS DISTORTING EXCESSIVELY.
   ELEMENT PART-1-1.16667 IS DISTORTING EXCESSIVELY.
   ELEMENT PART-1-1.16667 IS DISTORTING EXCESSIVELY.
   ELEMENT PART-1-1.16667 IS DISTORTING EXCESSIVELY.
   ELEMENT PART-1-1.16667 IS DISTORTING EXCESSIVELY.
   ELEMENT PART-1-1.16667 IS DISTORTING EXCESSIVELY.
   ELEMENT PART-1-1.16749 IS DISTORTING EXCESSIVELY.
   ELEMENT PART-1-1.16749 IS DISTORTING EXCESSIVELY.
   ELEMENT PART-1-1.16749 IS DISTORTING EXCESSIVELY.
   ELEMENT PART-1-1.16749 IS DISTORTING EXCESSIVELY.
   ELEMENT PART-1-1.16749 IS DISTORTING EXCESSIVELY.
   ELEMENT PART-1-1.16749 IS DISTORTING EXCESSIVELY.
   ELEMENT PART-1-1.16749 IS DISTORTING EXCESSIVELY.
   ELEMENT PART-1-1.16749 IS DISTORTING EXCESSIVELY.
   ELEMENT PART-1-1.16750 IS DISTORTING EXCESSIVELY.
   ELEMENT PART-1-1.16750 IS DISTORTING EXCESSIVELY.
   ELEMENT PART-1-1.16750 IS DISTORTING EXCESSIVELY.
   ELEMENT PART-1-1.16750 IS DISTORTING EXCESSIVELY.
   ELEMENT PART-1-1.16750 IS DISTORTING EXCESSIVELY.
   ELEMENT PART-1-1.16750 IS DISTORTING EXCESSIVELY.
   ELEMENT PART-1-1.16750 IS DISTORTING EXCESSIVELY.
   ELEMENT PART-1-1.16750 IS DISTORTING EXCESSIVELY.
   ELEMENT PART-1-1.16846 IS DISTORTING EXCESSIVELY.
   ELEMENT PART-1-1.16846 IS DISTORTING EXCESSIVELY.
   ELEMENT PART-1-1.16846 IS DISTORTING EXCESSIVELY.
   ELEMENT PART-1-1.16846 IS DISTORTING EXCESSIVELY.
   ELEMENT PART-1-1.16846 IS DISTORTING EXCESSIVELY.
   ELEMENT PART-1-1.16846 IS DISTORTING EXCESSIVELY.
   ELEMENT PART-1-1.16846 IS DISTORTING EXCESSIVELY.
   ELEMENT PART-1-1.16846 IS DISTORTING EXCESSIVELY.
   ELEMENT PART-1-1.16917 IS DISTORTING EXCESSIVELY.
   ELEMENT PART-1-1.16917 IS DISTORTING EXCESSIVELY.
   ELEMENT PART-1-1.16917 IS DISTORTING EXCESSIVELY.
   ELEMENT PART-1-1.16917 IS DISTORTING EXCESSIVELY.
   ELEMENT PART-1-1.16917 IS DISTORTING EXCESSIVELY.
   ELEMENT PART-1-1.16917 IS DISTORTING EXCESSIVELY.
   ELEMENT PART-1-1.16917 IS DISTORTING EXCESSIVELY.
   ELEMENT PART-1-1.16917 IS DISTORTING EXCESSIVELY.
   ELEMENT PART-1-1.16953 IS DISTORTING EXCESSIVELY.
   ELEMENT PART-1-1.16953 IS DISTORTING EXCESSIVELY.
   ELEMENT PART-1-1.16953 IS DISTORTING EXCESSIVELY.
   ELEMENT PART-1-1.16953 IS DISTORTING EXCESSIVELY.
   ELEMENT PART-1-1.16953 IS DISTORTING EXCESSIVELY.
   ELEMENT PART-1-1.16953 IS DISTORTING EXCESSIVELY.
   ELEMENT PART-1-1.16953 IS DISTORTING EXCESSIVELY.
   ELEMENT PART-1-1.16953 IS DISTORTING EXCESSIVELY.

 ***WARNING: THE STRAIN INCREMENT HAS EXCEEDED FIFTY TIMES THE STRAIN TO CAUSE 
             FIRST YIELD AT 321 POINTS

 ***WARNING: THE STRAIN INCREMENT IS SO LARGE THAT THE PROGRAM WILL NOT ATTEMPT 
             THE PLASTICITY CALCULATION AT 40 POINTS

 ***WARNING: EXCESSIVE DISTORTION AT A TOTAL OF 3668 INTEGRATION POINTS IN 
             SOLID (CONTINUUM) ELEMENTS
 

 ***NOTE: ELEMENTS ARE DISTORTING EXCESSIVELY. CONVERGENCE IS JUDGED UNLIKELY.
 

 ***NOTE: MATERIAL CALCULATIONS FAILED TO CONVERGE OR WERE NOT ATTEMPTED AT ONE 
          OR MORE POINTS. CONVERGENCE IS JUDGED UNLIKELY.
 

 ***ERROR: TIME INCREMENT REQUIRED IS LESS THAN THE MINIMUM SPECIFIED



     ANALYSIS SUMMARY:
     TOTAL OF          1  INCREMENTS
                       2  CUTBACKS IN AUTOMATIC INCREMENTATION
                       6  ITERATIONS INCLUDING CONTACT ITERATIONS IF PRESENT
                       6  PASSES THROUGH THE EQUATION SOLVER OF WHICH 
                       6  INVOLVE MATRIX DECOMPOSITION, INCLUDING
                       0  DECOMPOSITION(S) OF THE MASS MATRIX
                       1  REORDERING OF EQUATIONS TO MINIMIZE WAVEFRONT
                       0  ADDITIONAL RESIDUAL EVALUATIONS FOR LINE SEARCHES
                       0  ADDITIONAL OPERATOR EVALUATIONS FOR LINE SEARCHES
                       0  WARNING MESSAGES DURING USER INPUT PROCESSING
                      12  WARNING MESSAGES DURING ANALYSIS
                       0  ANALYSIS WARNINGS ARE NUMERICAL PROBLEM MESSAGES
                       3  ANALYSIS WARNINGS ARE NEGATIVE EIGENVALUE MESSAGES
                       1  ERROR MESSAGES



     JOB TIME SUMMARY
       USER TIME (SEC)      =      15.    
       SYSTEM TIME (SEC)    =      1.2    
       TOTAL CPU TIME (SEC) =      16.    
       WALLCLOCK TIME (SEC) =            8
       MEMORY PEAK (GB)     =            0
