*Heading
** Job name: Job-1 Model name: Model-1
** Generated by: Abaqus/CAE 2023.HF4
*Preprint, echo=NO, model=NO, history=NO, contact=NO
**
** PARTS
**
*Part, name=Part-1
*Node
      1, 0.0199999996, 0.0299999993, 0.00499999989
      2, 0.0199999996,           0., 0.00499999989
      3, 0.0199999996,           0.,           0.
      4, 0.0199999996, 0.0299999993,           0.
      5,           0.,           0., 0.00499999989
      6,           0.,           0.,           0.
      7,           0., 0.0299999993,           0.
      8,           0., 0.0299999993, 0.00499999989
      9, 0.0199999996,  0.170000002, 0.00499999989
     10, 0.0199999996,  0.170000002,           0.
     11,           0.,  0.170000002,           0.
     12,           0.,  0.170000002, 0.00499999989
     13, 0.0199999996,  0.200000003, 0.00499999989
     14, 0.0199999996,  0.200000003,           0.
     15,           0.,  0.200000003,           0.
     16,           0.,  0.200000003, 0.00499999989
     17, 0.0199999996, 0.0289999992, 0.00499999989
     18, 0.0199999996, 0.0280000009, 0.00499999989
     19, 0.0199999996, 0.0270000007, 0.00499999989
     20, 0.0199999996, 0.0260000005, 0.00499999989
** ... 25306 like lines cut
*Element, type=C3D8
   1,   186,  1373, 10355,  1221,     1,    17,   989,    82
   2,  1373,  1374, 10356, 10355,    17,    18,   990,   989
   3,  1374,  1375, 10357, 10356,    18,    19,   991,   990
   4,  1375,  1376, 10358, 10357,    19,    20,   992,   991
   5,  1376,  1377, 10359, 10358,    20,    21,   993,   992
   6,  1377,  1378, 10360, 10359,    21,    22,   994,   993
   7,  1378,  1379, 10361, 10360,    22,    23,   995,   994
   8,  1379,  1380, 10362, 10361,    23,    24,   996,   995
   9,  1380,  1381, 10363, 10362,    24,    25,   997,   996
  10,  1381,  1382, 10364, 10363,    25,    26,   998,   997
  11,  1382,  1383, 10365, 10364,    26,    27,   999,   998
  12,  1383,  1384, 10366, 10365,    27,    28,  1000,   999
  13,  1384,  1385, 10367, 10366,    28,    29,  1001,  1000
  14,  1385,  1386, 10368, 10367,    29,    30,  1002,  1001
  15,  1386,  1387, 10369, 10368,    30,    31,  1003,  1002
  16,  1387,  1388, 10370, 10369,    31,    32,  1004,  1003
  17,  1388,  1389, 10371, 10370,    32,    33,  1005,  1004
  18,  1389,  1390, 10372, 10371,    33,    34,  1006,  1005
  19,  1390,  1391, 10373, 10372,    34,    35,  1007,  1006
  20,  1391,  1392, 10374, 10373,    35,    36,  1008,  1007
** ... 19980 like lines cut
*Nset, nset=Set-1, generate
     1,  25326,      1
*Elset, elset=Set-1, generate
     1,  20000,      1
** Section: Section-1
*Solid Section, elset=Set-1, material=Material-1
,
*End Part
**  
**
** ASSEMBLY
**
*Assembly, name=Assembly
**  
*Instance, name=Part-1-1, part=Part-1
*End Instance
**  
*Nset, nset=Set-1, instance=Part-1-1
     1,     2,     3,     4,     5,     6,     7,     8,    17,    18,    19,    20,    21,    22,    23,    24
    25,    26,    27,    28,    29,    30,    31,    32,    33,    34,    35,    36,    37,    38,    39,    40
    41,    42,    43,    44,    45,    46,    47,    48,    49,    50,    51,    52,    53,    54,    55,    56
    57,    58,    59,    60,    61,    62,    63,    64,    65,    66,    67,    68,    69,    70,    71,    72
    73,    74,    75,    76,    77,    78,    79,    80,    81,    82,    83,    84,    85,    86,    87,    88
    89,    90,    91,    92,    93,    94,    95,    96,    97,    98,    99,   100,   101,   102,   103,   104
   105,   106,   107,   108,   109,   110,   111,   112,   113,   114,   115,   116,   117,   118,   119,   120
   121,   122,   123,   124,   125,   126,   127,   128,   129,   130,   131,   132,   133,   134,   135,   136
   137,   138,   139,   140,   141,   142,   143,   144,   145,   146,   147,   148,   149,   150,   151,   152
   153,   154,   155,   156,   157,   158,   159,   160,   161,   162,   163,   164,   165,   166,   167,   168
   169,   170,   171,   172,   173,   174,   175,   176,   177,   178,   179,   180,   181,   182,   183,   184
   185,   186,   187,   188,   189,   190,   191,   192,   193,   194,   195,   196,   197,   198,   199,   200
   201,   202,   203,   204,   205,   206,   207,   208,   209,   210,   211,   212,   213,   214,   215,   216
   217,   218,   219,   220,   221,   222,   223,   224,   989,   990,   991,   992,   993,   994,   995,   996
   997,   998,   999,  1000,  1001,  1002,  1003,  1004,  1005,  1006,  1007,  1008,  1009,  1010,  1011,  1012
  1013,  1014,  1015,  1016,  1017,  1018,  1019,  1020,  1021,  1022,  1023,  1024,  1025,  1026,  1027,  1028
  1029,  1030,  1031,  1032,  1033,  1034,  1035,  1036,  1037,  1038,  1039,  1040,  1041,  1042,  1043,  1044
  1045,  1046,  1047,  1048,  1049,  1050,  1051,  1052,  1053,  1054,  1055,  1056,  1057,  1058,  1059,  1060
  1061,  1062,  1063,  1064,  1065,  1066,  1067,  1068,  1069,  1070,  1071,  1072,  1073,  1074,  1075,  1076
  1077,  1078,  1079,  1080,  1081,  1082,  1083,  1084,  1085,  1086,  1087,  1088,  1089,  1090,  1091,  1092
** ... 225 like lines cut
*Elset, elset=Set-1, instance=Part-1-1, generate
    1,  3000,     1
*Nset, nset=Set-2, instance=Part-1-1
     9,    10,    11,    12,    13,    14,    15,    16,   503,   504,   505,   506,   785,   786,   787,   788
   789,   790,   791,   792,   793,   794,   795,   796,   797,   798,   799,   800,   801,   802,   803,   804
   805,   806,   807,   808,   809,   810,   811,   812,   813,   814,   815,   816,   817,   818,   819,   820
   821,   822,   823,   824,   825,   826,   827,   828,   829,   830,   831,   832,   833,   834,   835,   836
   837,   838,   839,   840,   841,   842,   843,   844,   845,   846,   847,   848,   849,   850,   851,   852
   853,   854,   855,   856,   857,   858,   859,   860,   861,   862,   863,   864,   865,   866,   867,   868
   869,   870,   871,   872,   873,   874,   875,   876,   877,   878,   879,   880,   881,   882,   883,   884
   885,   886,   887,   888,   889,   890,   891,   892,   893,   894,   895,   896,   897,   898,   899,   900
   901,   902,   903,   904,   905,   906,   907,   908,   909,   910,   911,   912,   913,   914,   915,   916
   917,   918,   919,   920,   921,   922,   923,   924,   925,   926,   927,   928,   929,   930,   931,   932
   933,   934,   935,   936,   937,   938,   939,   940,   941,   942,   943,   944,   945,   946,   947,   948
   949,   950,   951,   952,   953,   954,   955,   956,   957,   958,   959,   960,   961,   962,   963,   964
   965,   966,   967,   968,   969,   970,   971,   972,   973,   974,   975,   976,   977,   978,   979,   980
   981,   982,   983,   984,   985,   986,   987,   988,  3587,  3588,  3589,  3590,  3591,  3592,  3593,  3594
  3595,  3596,  3597,  3598,  3599,  3600,  3601,  3602,  3603,  3604,  3605,  3606,  3607,  3608,  3609,  3610
  3611,  3612,  3613,  3614,  3615,  3616,  3617,  3618,  3619,  3620,  3621,  3622,  3623,  3624,  3625,  3626
  3627,  3628,  3629,  3630,  3631,  3632,  3633,  3634,  3635,  3636,  3637,  3638,  3639,  3640,  3641,  3642
  3643,  3644,  3645,  3646,  3647,  3648,  3649,  3650,  3651,  3652,  3653,  3654,  3655,  3656,  3657,  3658
  3659,  3660,  3661,  3662,  8945,  8946,  8947,  8948,  8949,  8950,  8951,  8952,  8953,  8954,  8955,  8956
  8957,  8958,  8959,  8960,  8961,  8962,  8963,  8964,  8965,  8966,  8967,  8968,  8969,  8970,  8971,  8972
** ... 225 like lines cut
*Elset, elset=Set-2, instance=Part-1-1, generate
 17001,  20000,      1
*Nset, nset=Set-3, instance=Part-1-1
     1,     2,     3,     4,     5,     6,     7,     8,    17,    18,    19,    20,    21,    22,    23,    24
    25,    26,    27,    28,    29,    30,    31,    32,    33,    34,    35,    36,    37,    38,    39,    40
    41,    42,    43,    44,    45,    46,    47,    48,    49,    50,    51,    52,    53,    54,    55,    56
    57,    58,    59,    60,    61,    62,    63,    64,    65,    66,    67,    68,    69,    70,    71,    72
    73,    74,    75,    76,    77,    78,    79,    80,    81,    82,    83,    84,    85,    86,    87,    88
    89,    90,    91,    92,    93,    94,    95,    96,    97,    98,    99,   100,   101,   102,   103,   104
   105,   106,   107,   108,   109,   110,   111,   112,   113,   114,   115,   116,   117,   118,   119,   120
   121,   122,   123,   124,   125,   126,   127,   128,   129,   130,   131,   132,   133,   134,   135,   136
   137,   138,   139,   140,   141,   142,   143,   144,   145,   146,   147,   148,   149,   150,   151,   152
   153,   154,   155,   156,   157,   158,   159,   160,   161,   162,   163,   164,   165,   166,   167,   168
   169,   170,   171,   172,   173,   174,   175,   176,   177,   178,   179,   180,   181,   182,   183,   184
   185,   186,   187,   188,   189,   190,   191,   192,   193,   194,   195,   196,   197,   198,   199,   200
   201,   202,   203,   204,   205,   206,   207,   208,   209,   210,   211,   212,   213,   214,   215,   216
   217,   218,   219,   220,   221,   222,   223,   224,   989,   990,   991,   992,   993,   994,   995,   996
   997,   998,   999,  1000,  1001,  1002,  1003,  1004,  1005,  1006,  1007,  1008,  1009,  1010,  1011,  1012
  1013,  1014,  1015,  1016,  1017,  1018,  1019,  1020,  1021,  1022,  1023,  1024,  1025,  1026,  1027,  1028
  1029,  1030,  1031,  1032,  1033,  1034,  1035,  1036,  1037,  1038,  1039,  1040,  1041,  1042,  1043,  1044
  1045,  1046,  1047,  1048,  1049,  1050,  1051,  1052,  1053,  1054,  1055,  1056,  1057,  1058,  1059,  1060
  1061,  1062,  1063,  1064,  1065,  1066,  1067,  1068,  1069,  1070,  1071,  1072,  1073,  1074,  1075,  1076
  1077,  1078,  1079,  1080,  1081,  1082,  1083,  1084,  1085,  1086,  1087,  1088,  1089,  1090,  1091,  1092
** ... 225 like lines cut
*Elset, elset=Set-3, instance=Part-1-1, generate
    1,  3000,     1
*Nset, nset=Set-4, instance=Part-1-1
     9,    10,    11,    12,    13,    14,    15,    16,   503,   504,   505,   506,   785,   786,   787,   788
   789,   790,   791,   792,   793,   794,   795,   796,   797,   798,   799,   800,   801,   802,   803,   804
   805,   806,   807,   808,   809,   810,   811,   812,   813,   814,   815,   816,   817,   818,   819,   820
   821,   822,   823,   824,   825,   826,   827,   828,   829,   830,   831,   832,   833,   834,   835,   836
   837,   838,   839,   840,   841,   842,   843,   844,   845,   846,   847,   848,   849,   850,   851,   852
   853,   854,   855,   856,   857,   858,   859,   860,   861,   862,   863,   864,   865,   866,   867,   868
   869,   870,   871,   872,   873,   874,   875,   876,   877,   878,   879,   880,   881,   882,   883,   884
   885,   886,   887,   888,   889,   890,   891,   892,   893,   894,   895,   896,   897,   898,   899,   900
   901,   902,   903,   904,   905,   906,   907,   908,   909,   910,   911,   912,   913,   914,   915,   916
   917,   918,   919,   920,   921,   922,   923,   924,   925,   926,   927,   928,   929,   930,   931,   932
   933,   934,   935,   936,   937,   938,   939,   940,   941,   942,   943,   944,   945,   946,   947,   948
   949,   950,   951,   952,   953,   954,   955,   956,   957,   958,   959,   960,   961,   962,   963,   964
   965,   966,   967,   968,   969,   970,   971,   972,   973,   974,   975,   976,   977,   978,   979,   980
   981,   982,   983,   984,   985,   986,   987,   988,  3587,  3588,  3589,  3590,  3591,  3592,  3593,  3594
  3595,  3596,  3597,  3598,  3599,  3600,  3601,  3602,  3603,  3604,  3605,  3606,  3607,  3608,  3609,  3610
  3611,  3612,  3613,  3614,  3615,  3616,  3617,  3618,  3619,  3620,  3621,  3622,  3623,  3624,  3625,  3626
  3627,  3628,  3629,  3630,  3631,  3632,  3633,  3634,  3635,  3636,  3637,  3638,  3639,  3640,  3641,  3642
  3643,  3644,  3645,  3646,  3647,  3648,  3649,  3650,  3651,  3652,  3653,  3654,  3655,  3656,  3657,  3658
  3659,  3660,  3661,  3662,  8945,  8946,  8947,  8948,  8949,  8950,  8951,  8952,  8953,  8954,  8955,  8956
  8957,  8958,  8959,  8960,  8961,  8962,  8963,  8964,  8965,  8966,  8967,  8968,  8969,  8970,  8971,  8972
** ... 225 like lines cut
*Elset, elset=Set-4, instance=Part-1-1, generate
 17001,  20000,      1
*End Assembly
*Amplitude, name=Amp-1
             0.,              0.,           0.001,              1.
** 
** MATERIALS
** 
*Material, name=Material-1
*Damage Initiation, criterion=DUCTILE
 0.1,0.,1.
*Damage Evolution, type=DISPLACEMENT
 6.5e-05,
*Density
7800.,
*Elastic
 2e+11, 0.3
*Plastic
 3e+08,    0.
 4e+08, 0.001
 5e+08, 0.003
** ----------------------------------------------------------------
** 
** STEP: Step-1
** 
*Step, name=Step-1, nlgeom=YES, inc=1000
*Static
5., 1000., 1., 10.
** 
** BOUNDARY CONDITIONS
** 
** Name: BC-1 Type: Symmetry/Antisymmetry/Encastre
*Boundary
Set-3, ENCASTRE
** Name: BC-2 Type: Displacement/Rotation
*Boundary, amplitude=Amp-1
Set-4, 2, 2, 0.005
** 
** OUTPUT REQUESTS
** 
*Restart, write, frequency=0
** 
** FIELD OUTPUT: F-Output-1
** 
*Output, field, variable=PRESELECT
** 
** HISTORY OUTPUT: H-Output-1
** 
*Output, history, variable=PRESELECT
*End Step
