*Heading
**
*Part, name=barrel
*Node, nset=barrel
      1,           0.,  -2.65517235,   82.0892715
      2,    1.8774904,   -1.8774904,   82.0892715
      3,    5.3340807,   -5.3340807,   80.4354858
      4,           0.,  -7.54352903,   80.4354858
      5,   1.80299115,  -1.80299115,   83.1283417
      6,    5.3340807,   -5.3340807,   81.7717438
      7,           0.,  -7.54352903,   81.7717438
      8,           0.,  -2.54981446,   83.1283417
      9,   6.39947271,  -6.39947271,   81.3624344
     10,           0.,  -9.05022144,   81.3624344
     11,           0.,  -9.05022144,   79.9257507
     12,   6.39947271,  -6.39947271,   79.9257507
     13,   6.39947271,  -6.39947271,   1.07248521
     14,           0.,  -9.05022144,   1.07248521
     15,    5.3340807,   -5.3340807,   1.07248521
     16,           0.,  -7.54352903,   1.07248521
     17,           0.,  -1.55805337,   83.3977585
     18,           0.,          -1.,   92.9887772
     19,  0.707106769, -0.707106769,   92.9887772
     20,   1.10171008,  -1.10171008,   83.3977585
** ... 616 like lines cut
*Element, type=C3D8R, elset=barrel
 1,   8,  48, 285,  55,   1,  33, 277,  44
 2,  48,  47, 286, 285,  33,  34, 278, 277
 3,  47,  46, 287, 286,  34,  35, 279, 278
 4,  46,  45, 288, 287,  35,  36, 280, 279
 5,  45,   5,  50, 288,  36,   2,  37, 280
 6,  55, 285, 289,  56,  44, 277, 281,  43
 7, 285, 286, 290, 289, 277, 278, 282, 281
 8, 286, 287, 291, 290, 278, 279, 283, 282
 9, 287, 288, 292, 291, 279, 280, 284, 283
10, 288,  50,  49, 292, 280,  37,  38, 284
11,  56, 289,  51,   7,  43, 281,  42,   4
12, 289, 290,  52,  51, 281, 282,  41,  42
13, 290, 291,  53,  52, 282, 283,  40,  41
14, 291, 292,  54,  53, 283, 284,  39,  40
15, 292,  49,   6,  54, 284,  38,   3,  39
16,  6, 54, 39,  3,  9, 57, 64, 12
17, 54, 53, 40, 39, 57, 58, 63, 64
18, 53, 52, 41, 40, 58, 59, 62, 63
19, 52, 51, 42, 41, 59, 60, 61, 62
20, 51,  7,  4, 42, 60, 10, 11, 61
** ... 240 like lines cut
*Solid Section, elset=barrel, controls=EC-1, material=plastic
*End Part
**  
*Part, name=plunger
*Node, nset=plunger
      1,  0.720000029,  -7.16390944,   74.2663116
      2,  0.720000029,  -2.26638126,   74.2663116
      3,           0.,  -2.37800002,   74.2663116
      4,           0.,  -7.19999981,   74.2663116
      5,  0.720000029, -0.720000029,   74.2663116
      6,           0.,           0.,   74.2663116
      7,  0.720000029,  -6.16900015,   72.8263092
      8,           0.,  -6.16900015,   72.8263092
      9,           0.,  -7.19999981,   72.8263092
     10,  0.720000029,  -7.16390944,   72.8263092
     11,  0.720000029, -0.720000029,   72.8263092
     12,           0.,           0.,   72.8263092
     13,  0.720000029, -0.720000029,   -8.8696909
     14,  0.720000029,  -6.16900015,   -8.8696909
     15,           0.,  -6.16900015,   -8.8696909
     16,           0.,           0.,   -8.8696909
     17,   6.78822517,  -6.78822517,   -8.8696909
     18,           0.,  -9.60000038,   -8.8696909
     19,           0.,           0.,  -9.82969093
     20,   6.78822517,  -6.78822517,  -9.82969093
** ... 256 like lines cut
*Element, type=C3D8R, elset=plunger
1, 10,  7,  8,  9,  1, 33, 34,  4
2,  7, 35, 36,  8, 33,  2,  3, 34
3, 35, 11, 12, 36,  2,  5,  6,  3
 4,  16, 133, 230, 166,  13,  37, 198, 101
 5, 133, 132, 231, 230,  37,  38, 199, 198
 6, 132, 131, 232, 231,  38,  39, 200, 199
 7, 131, 130, 233, 232,  39,  40, 201, 200
 8, 130, 129, 234, 233,  40,  41, 202, 201
 9, 129, 128, 235, 234,  41,  42, 203, 202
10, 128, 127, 236, 235,  42,  43, 204, 203
11, 127, 126, 237, 236,  43,  44, 205, 204
12, 126, 125, 238, 237,  44,  45, 206, 205
13, 125, 124, 239, 238,  45,  46, 207, 206
14, 124, 123, 240, 239,  46,  47, 208, 207
15, 123, 122, 241, 240,  47,  48, 209, 208
16, 122, 121, 242, 241,  48,  49, 210, 209
17, 121, 120, 243, 242,  49,  50, 211, 210
18, 120, 119, 244, 243,  50,  51, 212, 211
19, 119, 118, 245, 244,  51,  52, 213, 212
20, 118, 117, 246, 245,  52,  53, 214, 213
** ... 69 like lines cut
*Element, type=C3D6, elset=plunger
82,   2, 182,   5, 184, 183, 185
83, 182,  22,   5, 183,  23, 185
88, 184, 183, 185, 273, 272, 191
89, 183,  23, 185, 272, 192, 191
94,   2,   5, 182,  35,  11, 275
95, 182,   5,  22, 275,  11, 195
*Solid Section, elset=plunger, controls=EC-1, material=plastic
*End Part
**  
*Part, name=stopper
*Node, nset=stopper
      1,   4.98510265,  -4.98510265,   77.7663116
      2,   5.16187954,  -5.16187954,   77.7663116
      3,   4.98510265,  -4.98510265,   76.7663116
      4,   5.16187954,  -5.16187954,   76.7663116
      5,           0.,           0.,   82.3163071
      6,           0.,           0.,   83.3163071
      7,   4.95469713,  -4.95469713,   79.7663116
      8,   2.86378241,  -2.86378241,   79.8922806
      9,   5.05970001,  -5.05970001,   80.5667572
     10,   4.98510265,  -4.98510265,   79.7663116
     11,   2.86378241,  -2.86378241,   76.9422836
     12,   4.98510265,  -4.98510265,   75.2663116
     13,   2.51022911,  -2.51022911,   74.2663116
     14,   1.80312228,  -1.80312228,   75.2663116
     15,   1.80312228,  -1.80312228,   76.9422836
     16,   5.33865643,  -5.33865643,   75.2663116
     17,   5.33865643,  -5.33865643,   74.2663116
     18,   4.98510265,  -4.98510265,   76.9498825
     19,   4.98510265,  -4.98510265,   77.1153259
     20,   4.98510265,  -4.98510265,   77.3110657
** ... 3286 like lines cut
*Element, type=C3D8RH, elset=stopper
   1,   92,   88,   26,   25,  422,  418,  360,  359
   2,   92,   95,   89,   88,  422,  425,  419,  418
   3,   95,   94,   90,   89,  425,  424,  420,  419
   4,   94,   93,   91,   90,  424,  423,  421,  420
   5,   93,   22,   21,   91,  423,  356,  355,  421
   6,   93,    2,    1,   22,  423,  338,  337,  356
   7,   94,   23,    2,   93,  424,  357,  338,  423
   8,   95,   24,   23,   94,  425,  358,  357,  424
   9,   92,   25,   24,   95,  422,  359,  358,  425
  10,  101,  102,   19,   18,  431,  432,  353,  352
  11,  102,  103,   20,   19,  432,  433,  354,  353
  12,  103,   91,   21,   20,  433,  421,  355,  354
  13,  100,  104,  102,  101,  430,  434,  432,  431
  14,  104,  105,  103,  102,  434,  435,  433,  432
  15,  105,   90,   91,  103,  435,  420,  421,  433
  16,   99,  106,  104,  100,  429,  436,  434,  430
  17,  106,  107,  105,  104,  436,  437,  435,  434
  18,  107,   89,   90,  105,  437,  419,  420,  435
  19,   96,   98,  106,   99,  426,  428,  436,  429
  20,   98,   97,  107,  106,  428,  427,  437,  436
** ... 2572 like lines cut
*Element, type=C3D6H, elset=stopper
2593,    6,   65,  395,   64,  109,  439
2594,   64,  109,  439,   63,  110,  440
2595,   63,  110,  440,   62,  111,  441
2596,   62,  111,  441,   61,  112,  442
2597,   61,  112,  442,    5,   60,  394
2598,    6,  395,  725,   64,  439,  769
2599,   64,  439,  769,   63,  440,  770
2600,   63,  440,  770,   62,  441,  771
2601,   62,  441,  771,   61,  442,  772
2602,   61,  442,  772,    5,  394,  724
2603,    6,  725, 1055,   64,  769, 1099
2604,   64,  769, 1099,   63,  770, 1100
2605,   63,  770, 1100,   62,  771, 1101
2606,   62,  771, 1101,   61,  772, 1102
2607,   61,  772, 1102,    5,  724, 1054
2608,    6, 1055, 1385,   64, 1099, 1429
2609,   64, 1099, 1429,   63, 1100, 1430
2610,   63, 1100, 1430,   62, 1101, 1431
2611,   62, 1101, 1431,   61, 1102, 1432
2612,   61, 1102, 1432,    5, 1054, 1384
** ... 43 like lines cut
*Solid Section, elset=stopper, material=rubber
*End Part
**  
**
** ASSEMBLY
**
*Assembly, name=Assembly
**  
*Instance, name=barrel-1, part=barrel
*End Instance
**  
*Instance, name=plunger-1, part=plunger
*End Instance
**  
*Instance, name=stopper-1, part=stopper
*End Instance
**  
*Nset, nset=symm, instance=barrel-1
   1,   2,   3,   4,   5,   6,   7,   8,   9,  10,  11,  12,  13,  14,  15,  16
  17,  18,  19,  20,  21,  22,  23,  24,  25,  26,  27,  28,  29,  30,  31,  32
  37,  38,  43,  44,  49,  50,  55,  56,  65,  66,  67,  68,  69,  70,  71,  72
  73,  74,  75,  76,  77,  78,  79,  80,  81,  82,  83,  84,  85,  86,  87,  88
  89,  90,  91,  92,  93,  94,  95,  96,  97,  98,  99, 100, 101, 102, 103, 108
 109, 110, 111, 112, 113, 114, 115, 116, 117, 118, 119, 120, 121, 122, 123, 124
 125, 126, 127, 128, 129, 130, 131, 132, 133, 134, 135, 136, 137, 138, 139, 140
 141, 142, 143, 144, 145, 146, 147, 148, 149, 150, 151, 152, 153, 154, 155, 156
 157, 158, 159, 160, 161, 162, 163, 164, 165, 166, 167, 168, 169, 170, 171, 172
 173, 174, 175, 176, 177, 178, 179, 180, 181, 182, 183, 184, 185, 190, 191, 192
 193, 194, 195, 196, 197, 198, 199, 200, 201, 202, 203, 204, 205, 206, 207, 208
 209, 210, 211, 212, 213, 214, 215, 216, 217, 218, 219, 220, 221, 222, 223, 224
 225, 226, 227, 228, 229, 230, 231, 232, 237, 238, 239, 240, 245, 246, 247, 248
 253, 254, 255, 256
*Nset, nset=symm, instance=plunger-1
   3,   4,   5,   8,   9,  11,  13,  15,  17,  18,  20,  21,  22,  23,  24,  26
  27,  28,  30,  31,  32,  34,  36,  37,  38,  39,  40,  41,  42,  43,  44,  45
  46,  47,  48,  49,  50,  51,  52,  53,  54,  55,  56,  57,  58,  59,  60,  61
  62,  63,  64,  65,  66,  67,  68, 134, 135, 136, 137, 138, 139, 140, 141, 142
 143, 144, 145, 146, 147, 148, 149, 150, 151, 152, 153, 154, 155, 156, 157, 158
 159, 160, 161, 162, 163, 164, 165, 166, 167, 168, 169, 170, 173, 174, 175, 176
 179, 180, 181, 185, 188, 191, 192, 194, 195, 196, 230, 231, 232, 233, 234, 235
 236, 237, 238, 239, 240, 241, 242, 243, 244, 245, 246, 247, 248, 249, 250, 251
 252, 253, 254, 255, 256, 257, 258, 259, 260, 261
*Nset, nset=symm, instance=stopper-1
    1,    2,    3,    4,    7,    8,    9,   10,   11,   12,   13,   14,   15,   16,   17,   18
   19,   20,   21,   22,   23,   24,   25,   26,   27,   28,   29,   30,   31,   32,   33,   34
   35,   36,   37,   38,   39,   40,   41,   42,   43,   44,   45,   46,   47,   48,   49,   50
   51,   52,   53,   54,   55,   56,   57,   58,   59,   60,   65,   66,   67,   68,   69,   70
   71,   72,   73,   74,   75,   76,   77,   78,   79,   80,   81,   82,   83,   84,   85,   86
   87,   88,   89,   90,   91,   92,   93,   94,   95,   96,   97,   98,   99,  100,  101,  102
  103,  104,  105,  106,  107,  108,  109,  110,  111,  112,  113,  114,  115,  116,  117,  118
  119,  120,  121,  122,  123,  124,  125,  126,  127,  128,  129,  130,  131,  132,  133,  134
  135,  136,  137,  138,  139,  140,  141,  142,  143,  144,  145,  146,  147,  148,  149,  150
  151,  152,  153,  154,  155,  156,  157,  158,  159,  160,  161,  162,  163,  164,  165,  166
  167,  168,  169,  170,  171,  172,  173,  174,  175,  176,  177,  178,  179,  180,  181,  182
  183,  184,  185,  186,  187,  188,  189,  190,  191,  192,  193,  194,  195,  196,  197,  198
  199,  200,  201,  202,  203,  204,  205,  206,  207,  208,  209,  210,  211,  212,  213,  214
  215,  216,  217,  218,  219,  220,  221,  222,  223,  224,  225,  226,  227,  228,  229,  230
  231,  232,  233,  234,  235,  236,  237,  238,  239,  240,  241,  242,  243,  244,  245,  246
  247,  248,  249,  250,  251,  252,  253,  254,  255,  256,  257,  258,  259,  260,  261,  262
  263,  264,  265,  266,  267,  268,  269,  270,  271,  272,  273,  274,  275,  276,  277,  278
  279,  280,  281,  282,  283,  284,  285,  286,  287,  288,  289,  290,  291,  292,  293,  294
  295,  296,  297,  298,  299,  300,  301,  302,  303,  304,  305,  306,  307,  308,  309,  310
  311,  312,  313,  314,  315,  316,  317,  318,  319,  320,  321,  322,  323,  324,  325,  326
** ... 22 like lines cut
*Nset, nset=axis, instance=plunger-1
   6,  12,  16,  19,  25,  29, 102, 103, 104, 105, 106, 107, 108, 109, 110, 111
 112, 113, 114, 115, 116, 117, 118, 119, 120, 121, 122, 123, 124, 125, 126, 127
 128, 129, 130, 131, 132, 133
*Nset, nset=axis, instance=stopper-1
  5,  6, 61, 62, 63, 64
*Nset, nset=top-barrel, instance=barrel-1
  23,  25,  27,  28,  31,  32, 257, 258, 259, 260, 261, 262, 263, 264, 273, 274
 275, 276
*Nset, nset=top-plunger, instance=plunger-1
  20,  21, 173, 174, 175, 176, 177, 178, 179, 180, 181, 266, 267, 268, 269, 270
 271,
*Nset, nset=center, instance=plunger-1
 19,
*Nset, nset=cylindrical
symm, 
top-barrel, 
top-plunger, 
*Transform, nset=cylindrical, type=C
0., 0., -9.82969058766174, 0., 0., -8.82969058766174
**
*Equation
2
top-plunger, 3,  1.
center,      3, -1.
*End Assembly
** 
*Section Controls, name=EC-1, hourglass=ENHANCED
** 
*Material, name=plastic
*Elastic
1500., 0.35
**
*Material, name=rubber
*Hyperelastic, mooney-rivlin
 0.56,   0.14, 0.0143
** 
** Define surface interaction properties
** 
** Define contact initialization
**  
** Define contact
** 
*Step, name=Step-1, nlgeom=YES, unsymm=YES
*Static
0.1, 1., 1e-05, 1.
*Boundary
axis, 1, 2
symm, 2, 2
top-barrel, 3, 3
center, 3, 3
*End Step
** 
*Step, name=Step-2, nlgeom=YES
*Static
1., 1.
** Change friction properties
**
*End Step
** 
*Step, name=Step-3, nlgeom=YES
*Static
0.1, 1.
** pull plunger out
**
*End Step
** 
*Step, name=Step-4, nlgeom=YES
*Static
0.1, 1.
** push plunger back in
**
*End Step
