*HEADING
Note: This file intended for use with the Element Selection Lecture Series.
**
*PREPRINT, MODEL=YES
*NODE
       1,         0.5,          0.,          2.
       2,    0.444444,          0.,          2.
       3,    0.388889,          0.,          2.
       4,    0.333333,          0.,          2.
       5,    0.277778,          0.,          2.
       6,    0.222222,          0.,          2.
       7,    0.166667,          0.,          2.
       8,    0.111111,          0.,          2.
       9,   0.0555556,          0.,          2.
      10,          0.,          0.,          2.
      11,         0.5,          0.,     1.93333
      12,    0.444444,          0.,     1.93333
      13,    0.388889,          0.,     1.93333
      14,    0.333333,          0.,     1.93333
      15,    0.277778,          0.,     1.93333
      16,    0.222222,          0.,     1.93333
      17,    0.166667,          0.,     1.93333
      18,    0.111111,          0.,     1.93333
      19,   0.0555556,          0.,     1.93333
      20,          0.,          0.,     1.93333
** ... 786 like lines cut
**
**
*ELEMENT, TYPE=S4R5, ELSET=WALL
       1,       1,       2,      12,      11
       2,       2,       3,      13,      12
       3,       3,       4,      14,      13
       4,       4,       5,      15,      14
       5,       5,       6,      16,      15
       6,       6,       7,      17,      16
       7,       7,       8,      18,      17
       8,       8,       9,      19,      18
       9,       9,      10,      20,      19
      10,      11,      12,      22,      21
      11,      12,      13,      23,      22
      12,      13,      14,      24,      23
      13,      14,      15,      25,      24
      14,      15,      16,      26,      25
      15,      16,      17,      27,      26
      16,      17,      18,      28,      27
      17,      18,      19,      29,      28
      18,      19,      20,      30,      29
      19,      21,      22,      32,      31
      20,      22,      23,      33,      32
** ... 250 like lines cut
*ELEMENT,TYPE=S4R5,ELSET=GUTTER
     271,      10,     312,     320,      20
     272,     312,     313,     321,     320
     273,     313,     314,     322,     321
     274,     314,     315,     323,     322
     275,     315,     316,     324,     323
     276,     316,     317,     325,     324
     277,     317,     318,     326,     325
     278,      20,     320,     328,      30
     279,     320,     321,     329,     328
     280,     321,     322,     330,     329
     281,     322,     323,     331,     330
     282,     323,     324,     332,     331
     283,     324,     325,     333,     332
     284,     325,     326,     334,     333
     285,      30,     328,     336,      40
     286,     328,     329,     337,     336
     287,     329,     330,     338,     337
     288,     330,     331,     339,     338
     289,     331,     332,     340,     339
     290,     332,     333,     341,     340
** ... 190 like lines cut
*ELEMENT,TYPE=S4R5,ELSET=WALL
     481,      10,     560,     570,      20
     482,     560,     561,     571,     570
     483,     561,     562,     572,     571
     484,     562,     563,     573,     572
     485,     563,     564,     574,     573
     486,     564,     565,     575,     574
     487,     565,     566,     576,     575
     488,     566,     567,     577,     576
     489,     567,     568,     578,     577
     490,      20,     570,     580,      30
     491,     570,     571,     581,     580
     492,     571,     572,     582,     581
     493,     572,     573,     583,     582
     494,     573,     574,     584,     583
     495,     574,     575,     585,     584
     496,     575,     576,     586,     585
     497,     576,     577,     587,     586
     498,     577,     578,     588,     587
     499,      30,     580,     590,      40
     500,     580,     581,     591,     590
** ... 250 like lines cut
**
** prop1
**
*SHELL SECTION, ELSET=GUTTER, MATERIAL=STEEL
0.02,
*SHELL SECTION, ELSET=WALL, MATERIAL=STEEL
0.02,
**
** mat1
**
*MATERIAL, NAME=STEEL
**
*ELASTIC, TYPE=ISO
200.E9,0.3
**
*NSET, NSET=PATH, GENERATE
440, 446, 1
**
** step  1,Case1
**
*STEP
*STATIC
**
** ground
**
*BOUNDARY, OP=NEW
       1, 1,,          0.
       1, 2,,          0.
       1, 3,,          0.
      11, 1,,          0.
      11, 2,,          0.
      11, 3,,          0.
      21, 1,,          0.
      21, 2,,          0.
      21, 3,,          0.
      31, 1,,          0.
      31, 2,,          0.
      31, 3,,          0.
      41, 1,,          0.
      41, 2,,          0.
      41, 3,,          0.
      51, 1,,          0.
      51, 2,,          0.
      51, 3,,          0.
      61, 1,,          0.
      61, 2,,          0.
** ... 166 like lines cut
**
*BOUNDARY, OP=NEW
       1, 4,,          0.
       1, 5,,          0.
       1, 6,,          0.
      11, 4,,          0.
      11, 5,,          0.
      11, 6,,          0.
      21, 4,,          0.
      21, 5,,          0.
      21, 6,,          0.
      31, 4,,          0.
      31, 5,,          0.
      31, 6,,          0.
      41, 4,,          0.
      41, 5,,          0.
      41, 6,,          0.
      51, 4,,          0.
      51, 5,,          0.
      51, 6,,          0.
      61, 4,,          0.
      61, 5,,          0.
** ... 166 like lines cut
*DLOAD
GUTTER,P,-10.E6
**
*OUTPUT,FIELD
*NODE OUTPUT
U,
*OUTPUT,FIELD
*ELEMENT OUTPUT
S,
*END STEP
