*HEADING
Note: This file intended for use with the Element Selection Lecture Series.
**
*PREPRINT, MODEL=YES
*NODE
       1,         0.5,          0.,          2.
       2,    0.444444,          0.,          2.
       3,    0.388889,          0.,          2.
       4,    0.333333,          0.,          2.
       5,    0.277778,          0.,          2.
       6,    0.222222,          0.,          2.
       7,    0.166667,          0.,          2.
       8,    0.111111,          0.,          2.
       9,   0.0555556,          0.,          2.
      10,          0.,          0.,          2.
      11,         0.5,          0.,     1.93333
      12,    0.444444,          0.,     1.93333
      13,    0.388889,          0.,     1.93333
      14,    0.333333,          0.,     1.93333
      15,    0.277778,          0.,     1.93333
      16,    0.222222,          0.,     1.93333
      17,    0.166667,          0.,     1.93333
      18,    0.111111,          0.,     1.93333
      19,   0.0555556,          0.,     1.93333
      20,          0.,          0.,     1.93333
** ... 972 like lines cut
**
**
*ELEMENT, TYPE=S4R5, ELSET=WALL
       1,       1,       2,      12,      11
       2,       2,       3,      13,      12
       3,       3,       4,      14,      13
       4,       4,       5,      15,      14
       5,       5,       6,      16,      15
       6,       6,       7,      17,      16
       7,       7,       8,      18,      17
       8,       8,       9,      19,      18
       9,       9,      10,      20,      19
      10,      11,      12,      22,      21
      11,      12,      13,      23,      22
      12,      13,      14,      24,      23
      13,      14,      15,      25,      24
      14,      15,      16,      26,      25
      15,      16,      17,      27,      26
      16,      17,      18,      28,      27
      17,      18,      19,      29,      28
      18,      19,      20,      30,      29
      19,      21,      22,      32,      31
      20,      22,      23,      33,      32
** ... 520 like lines cut
*ELEMENT,TYPE=S4R5,ELSET=GUTTER
     751,      10,     870,     884,      20
     752,     870,     871,     885,     884
     753,     871,     872,     886,     885
     754,     872,     873,     887,     886
     755,     873,     874,     888,     887
     756,     874,     875,     889,     888
     757,     875,     876,     890,     889
     758,     876,     877,     891,     890
     759,     877,     878,     892,     891
     760,     878,     879,     893,     892
     761,     879,     880,     894,     893
     762,     880,     881,     895,     894
     763,     881,     882,     896,     895
     764,      20,     884,     898,      30
     765,     884,     885,     899,     898
     766,     885,     886,     900,     899
     767,     886,     887,     901,     900
     768,     887,     888,     902,     901
     769,     888,     889,     903,     902
     770,     889,     890,     904,     903
** ... 370 like lines cut
**
** prop1
**
*SHELL SECTION, ELSET=GUTTER, MATERIAL=STEEL
0.02,
*SHELL SECTION, ELSET=WALL, MATERIAL=STEEL
0.02,
**
** mat1
**
*MATERIAL, NAME=STEEL
**
*ELASTIC, TYPE=ISO
200.E9, 0.3
**
*NSET, NSET=PATH, GENERATE
1080, 1092, 1
**
** step  1,Case1
**
*STEP
*STATIC
**
** ground
**
*BOUNDARY, OP=NEW
       1, 1,,          0.
       1, 2,,          0.
       1, 3,,          0.
      11, 1,,          0.
      11, 2,,          0.
      11, 3,,          0.
      21, 1,,          0.
      21, 2,,          0.
      21, 3,,          0.
      31, 1,,          0.
      31, 2,,          0.
      31, 3,,          0.
      41, 1,,          0.
      41, 2,,          0.
      41, 3,,          0.
      51, 1,,          0.
      51, 2,,          0.
      51, 3,,          0.
      61, 1,,          0.
      61, 2,,          0.
** ... 166 like lines cut
**
*BOUNDARY, OP=NEW
       1, 4,,          0.
       1, 5,,          0.
       1, 6,,          0.
      11, 4,,          0.
      11, 5,,          0.
      11, 6,,          0.
      21, 4,,          0.
      21, 5,,          0.
      21, 6,,          0.
      31, 4,,          0.
      31, 5,,          0.
      31, 6,,          0.
      41, 4,,          0.
      41, 5,,          0.
      41, 6,,          0.
      51, 4,,          0.
      51, 5,,          0.
      51, 6,,          0.
      61, 4,,          0.
      61, 5,,          0.
** ... 166 like lines cut
**
*DLOAD
GUTTER, P, -10.E6
**
*OUTPUT,FIELD
*NODE OUTPUT
U,
*OUTPUT,FIELD
*ELEMENT OUTPUT
S,
*END STEP
