*Heading
**
** PARTS
**
*Part, name=bushing
*End Part
**
** ASSEMBLY
**
*Assembly, name=Assembly
**  
*Instance, name=bushing-1, part=bushing
*Node
      1,          0.5,           0.
      2,     0.583333,           0.
      3,     0.666667,           0.
      4,         0.75,           0.
      5,     0.833333,           0.
      6,     0.916667,           0.
      7,           1.,           0.
     11,     0.496856,    0.0559822
     12,     0.579665,    0.0653126
     13,     0.662475,     0.074643
     14,     0.745284,    0.0839734
     15,     0.828094,    0.0933037
     16,     0.910903,     0.102634
     17,     0.993712,     0.111964
     21,     0.487464,      0.11126
     22,     0.568708,     0.129804
     23,     0.649952,     0.148347
     24,     0.731196,     0.166891
     25,      0.81244,     0.185434
     26,     0.893684,     0.203978
** ... 373 like lines cut
*Element, type=CPE4R, elset=ALL
1,  1,  2, 12, 11
2,  2,  3, 13, 12
3,  3,  4, 14, 13
4,  4,  5, 15, 14
5,  5,  6, 16, 15
6,  6,  7, 17, 16
11, 11, 12, 22, 21
12, 12, 13, 23, 22
13, 13, 14, 24, 23
14, 14, 15, 25, 24
15, 15, 16, 26, 25
16, 16, 17, 27, 26
21, 21, 22, 32, 31
22, 22, 23, 33, 32
23, 23, 24, 34, 33
24, 24, 25, 35, 34
25, 25, 26, 36, 35
26, 26, 27, 37, 36
31, 31, 32, 42, 41
32, 32, 33, 43, 42
** ... 316 like lines cut
*Solid Section, elset=ALL, material=RUBBER
1.,
*End Instance
*Nset, nset=ref, instance=bushing-1
 999,
*Nset, nset=outer, generate, instance=bushing-1
   7,  557,   10
*Nset, nset=inner, generate, instance=bushing-1
   1,  551,   10
*Surface, type=node, name=inner, internal
inner, 1.0
*Coupling, constraint name=Constraint-1, ref node=ref, surface=inner
*Kinematic
1, 1
2, 2
*End Assembly
** 
** MATERIALS
** 
*Material, name=RUBBER
*Hyperelastic, moduli=INSTANTANEOUS
4000., 1000., 2e-05
*Viscoelastic, time=PRONY
 0.2, 0.5, 0.1
 0.1, 0.2, 0.2
** 
** BOUNDARY CONDITIONS
** 
*Boundary
outer, 1, 2
** ----------------------------------------------------------------
** 
** STEP: Step-1
** 
*Step, name=Step-1, nlgeom
*Static
0.001, 0.001, 0.0001, 0.001
*Cload
ref, 1, 50000.
*End Step
** ----------------------------------------------------------------
** 
** STEP: Step-2
** 
*Step, name=Step-2, nlgeom, inc=150
*Visco, cetol=0.0005
0.04, 1., 1e-05, 1.
*End Step
