*Heading
**
*Part, name=plate
*Node
      1,    0.7071068,    0.7071068
      2,           1.,           0.
      3,     1.235294,           0.
      4,    0.8785661,    0.8780912
      5,           5.,           0.
      6,           5.,    0.7894737
      7,           5.,           5.
      8,    0.7894737,           5.
      9,           0.,           5.
     10,           0.,     1.235294
     11,           0.,           1.
     12,    0.8660254,          0.5
     13,    0.9659258,     0.258819
     14,     1.167307,    0.2710392
     15,     1.054819,    0.5609913
     16,     1.470588,           0.
     17,     1.705882,           0.
     18,     1.941176,           0.
     19,     2.176471,           0.
     20,     2.411765,           0.
** ... 378 like lines cut
*Element, type=CPS4R, elset=plate
  1,   1,  12,  15,   4
  2,  12,  13,  14,  15
  3,  13,   2,   3,  14
  4,   3,  16, 114,  14
  5,  16,  17, 115, 114
  6,  17,  18, 116, 115
  7,  18,  19, 117, 116
  8,  19,  20, 118, 117
  9,  20,  21, 119, 118
 10,  21,  22, 120, 119
 11,  22,  23, 121, 120
 12,  23,  24, 122, 121
 13,  24,  25, 123, 122
 14,  25,  26, 124, 123
 15,  26,  27, 125, 124
 16,  27,  28, 126, 125
 17,  28,  29, 127, 126
 18,  29,  30, 128, 127
 19,  30,   5,  31, 128
 20,  14, 114, 129,  15
** ... 338 like lines cut
**
*Solid Section, elset=plate, material=steel
0.1,
*End Part
**
** ASSEMBLY
**
*Assembly, name=Assembly
**  
*Instance, name=plate-1, part=plate
*End Instance
*Nset, nset=xsymm, instance=plate-1
   9,  10,  11,  95,  96,  97,  98,  99, 100, 101, 102, 103, 104, 105, 106, 107
 108, 109
*Nset, nset=ysymm, instance=plate-1
  2,  3,  5, 16, 17, 18, 19, 20, 21, 22, 23, 24, 25, 26, 27, 28
 29, 30
*Nset, nset=pull, instance=plate-1
  5,  6,  7, 31, 32, 48, 49, 50, 51, 52, 53, 54, 55, 56, 57, 58
 59, 60, 61, 62
*Elset, elset=_pull_S2, internal, instance=plate-1, generate
 19,  51,  16
*Elset, elset=_pull_S1, internal, instance=plate-1, generate
 52,  67,   1
*Surface, type=ELEMENT, name=pull
_pull_S2, S2
_pull_S1, S1
*End Assembly
** 
*Material, name=steel
*Elastic
 1e+07, 0.3
*Plastic
 35000.,0.
** 
*Boundary
xsymm, XSYMM
ysymm, YSYMM
** 
*Step, name=Step-1, nlgeom=YES
*Static
0.1, 1.
**
*Dsload
pull, P, -40000.
**
***Boundary
**pull, 1, 1, 0.25
**
*End Step
