*Heading
**
** PARTS
**
*Part, name=ball
*End Part
*Part, name=racket
*End Part
**
** ASSEMBLY
**
*Assembly, name=Assembly
**  
*Instance, name=racket-1, part=racket
*Node
    105,        -2.16,         -7.3,           0.
    106,        -1.62,       -7.825,           0.
    107,        -1.08,         -8.2,           0.
    108,        -0.54,       -8.425,           0.
    109,           0.,         -8.5,           0.
    110,         0.54,       -8.425,           0.
    111,         1.08,         -8.2,           0.
    112,         1.62,       -7.825,           0.
    113,         2.16,         -7.3,           0.
    204,         -2.7,       -6.625,           0.
    205,        -2.16,       -6.625,           0.
    206,        -1.62,       -6.625,           0.
    207,        -1.08,       -6.625,           0.
    208,        -0.54,       -6.625,           0.
    209,           0.,       -6.625,           0.
    210,         0.54,       -6.625,           0.
    211,         1.08,       -6.625,           0.
    212,         1.62,       -6.625,           0.
    213,         2.16,       -6.625,           0.
    214,          2.7,       -6.625,           0.
** ... 421 like lines cut
*Element, type=T3D2, elset=STRINGS
  1,  204,  205
  2,  205,  206
  3,  206,  207
  4,  207,  208
  5,  208,  209
  6,  209,  210
  7,  210,  211
  8,  211,  212
  9,  212,  213
 10,  213,  214
 11,  303,  304
 12,  304,  305
 13,  305,  306
 14,  306,  307
 15,  307,  308
 16,  308,  309
 17,  309,  310
 18,  310,  311
 19,  311,  312
 20,  312,  313
** ... 548 like lines cut
*Element, type=S4R, elset=FRAME
3001, 10105, 10106,   106,   105
3002, 10106, 10107,   107,   106
3003, 10107, 10108,   108,   107
3004, 10108, 10109,   109,   108
3005, 10109, 10110,   110,   109
3006, 10110, 10111,   111,   110
3007, 10111, 10112,   112,   111
3008, 10112, 10113,   113,   112
3009, 10113, 10214,   214,   113
3010, 10214, 10315,   315,   214
3011, 10315, 10416,   416,   315
3012, 10416, 10517,   517,   416
3013, 10517, 10617,   617,   517
3014, 10617, 10717,   717,   617
3015, 10717, 10817,   817,   717
3016, 10817, 10917,   917,   817
3017, 10917, 11017,  1017,   917
3018, 11017, 11117,  1117,  1017
3019, 11117, 11217,  1217,  1117
3020, 11217, 11317,  1317,  1217
** ... 96 like lines cut
*Solid Section, elset=STRINGS, material=STRING
0.007854,
*Shell Section, elset=FRAME, material=STEEL
0.1, 5
*End Instance
**  
*Instance, name=ball-1, part=ball
*Node
  30002,       -0.866,       -0.866,        2.366
  30003,      -0.5859,      -0.9764,        2.476
  30004,        -0.21,        -1.05,         2.55
  30005,         0.21,        -1.05,         2.55
  30006,       0.5859,      -0.9764,        2.476
  30007,        0.866,       -0.866,        2.366
  30008,      -0.9764,      -0.5859,        2.476
  30009,      -0.6862,      -0.6862,        2.644
  30010,      -0.2535,      -0.7606,        2.768
  30011,       0.2535,      -0.7606,        2.768
  30012,       0.6862,      -0.6862,        2.644
  30013,       0.9764,      -0.5859,        2.476
  30014,        -1.05,        -0.21,         2.55
  30015,      -0.7606,      -0.2535,        2.768
  30016,      -0.2887,      -0.2887,        2.943
  30017,       0.2887,      -0.2887,        2.943
  30018,       0.7606,      -0.2535,        2.768
  30019,         1.05,        -0.21,         2.55
  30020,        -1.05,         0.21,         2.55
  30021,      -0.7606,       0.2535,        2.768
** ... 132 like lines cut
*Element, type=S4R, elset=SPHERE
30001, 30002, 30003, 30009, 30008
30002, 30008, 30009, 30015, 30014
30003, 30014, 30015, 30021, 30020
30004, 30020, 30021, 30027, 30026
30005, 30026, 30027, 30033, 30032
30006, 30003, 30004, 30010, 30009
30007, 30009, 30010, 30016, 30015
30008, 30015, 30016, 30022, 30021
30009, 30021, 30022, 30028, 30027
30010, 30027, 30028, 30034, 30033
30011, 30004, 30005, 30011, 30010
30012, 30010, 30011, 30017, 30016
30013, 30016, 30017, 30023, 30022
30014, 30022, 30023, 30029, 30028
30015, 30028, 30029, 30035, 30034
30016, 30005, 30006, 30012, 30011
30017, 30011, 30012, 30018, 30017
30018, 30017, 30018, 30024, 30023
30019, 30023, 30024, 30030, 30029
30020, 30029, 30030, 30036, 30035
** ... 130 like lines cut
*Shell Section, elset=SPHERE, material=RUBBER
0.2, 3
*End Instance
*Nset, nset=SPHERE, instance=ball-1, generate
 30002,  30153,      1
*End Assembly
** 
** MATERIALS
** 
*Material, name=RUBBER
*Density
 0.0001,
*Hyperelastic
100.,    25., 0.0001
*Material, name=STEEL
*Elastic
 3e+07, 0.3
*Material, name=STRING
*Density
 0.000107,
*Elastic
 1e+06,0.
** ----------------------------------------------------------------
** 
** STEP: Step-1
** 
*ELSET,ELSET=QA_TEST_All_ELSETS_AUTO
STRINGS, FRAME, STRINGS, FRAME, SPHERE, SPHERE,
*NSET,NSET=QA_TEST_All_NSETS_AUTO
SPHERE,
*Step, name=Step-1
*Dynamic, Explicit
, 0.015
*OUTPUT,FIELD,VARIABLE=PRESELECT,NUMBER INTERVAL=4,OP=NEW
*OUTPUT,HISTORY,VARIABLE=PRESELECT,TIME INTERVAL=0.00375,OP=NEW
*OUTPUT,FIELD,NUMBER INTERVAL=1,OP=ADD
*NODE OUTPUT, NSET=QA_TEST_All_NSETS_AUTO
U
*ELEMENT OUTPUT, ELSET=QA_TEST_All_ELSETS_AUTO
LE,PEEQ
*End Step
** ----------------------------------------------------------------
** 
** STEP: Step-2
** 
*Step, name=Step-2
*Dynamic, Explicit
, 0.015
*End Step
** ----------------------------------------------------------------
** 
** STEP: Step-3
** 
*Step, name=Step-3
*Dynamic, Explicit
, 0.015
*Bulk Viscosity
*End Step
