*Heading
**
** PARTS
**
*Part, name=tire
*End Part
**
** ASSEMBLY
**
*Assembly, name=Assembly
**  
*Instance, name=tire-1, part=tire
*Node
      1,           0.,   -0.0645597,      0.18638
      3,           0.,   -0.0763406,      0.18622
      4,           0.,   -0.0713541,      0.20156
      6,           0.,   -0.0820232,      0.19626
      7,           0.,   -0.0782998,      0.21379
      9,           0.,   -0.0878095,      0.20938
     10,           0.,   -0.0848594,      0.22627
     12,           0.,   -0.0915332,      0.22427
     13,           0.,   -0.0880791,      0.24013
     15,           0.,   -0.0928172,      0.24004
     16,           0.,   -0.0870777,      0.25345
     18,           0.,   -0.0909116,      0.25438
     19,           0.,   -0.0832637,      0.26624
     21,           0.,   -0.0864524,       0.2678
     22,           0.,   -0.0749666,      0.27924
     24,           0.,   -0.0787884,      0.28171
     25,           0.,    -0.066966,      0.28713
     27,           0.,   -0.0717918,      0.29216
     28,           0.,   -0.0587286,      0.29257
     30,           0.,   -0.0604988,       0.2954
** ... 2140 like lines cut
*Element, type=C3D8H
1, 250, 255, 254, 249,  50,  55,  54,  49
2, 245, 250, 249, 244,  45,  50,  49,  44
3, 240, 245, 244, 239,  40,  45,  44,  39
5, 235, 240, 239, 234,  35,  40,  39,  34
7, 231, 235, 234, 230,  31,  35,  34,  30
15, 227, 230, 228, 225,  27,  30,  28,  25
16, 224, 227, 225, 222,  24,  27,  25,  22
17, 221, 224, 222, 219,  21,  24,  22,  19
18, 218, 221, 219, 216,  18,  21,  19,  16
19, 215, 218, 216, 213,  15,  18,  16,  13
20, 212, 215, 213, 210,  12,  15,  13,  10
21, 230, 234, 232, 228,  30,  34,  32,  28
29, 209, 212, 210, 207,   9,  12,  10,   7
30, 206, 209, 207, 204,   6,   9,   7,   4
31, 203, 206, 204, 201,   3,   6,   4,   1
35, 249, 254, 251, 246,  49,  54,  51,  46
36, 244, 249, 246, 241,  44,  49,  46,  41
37, 239, 244, 241, 236,  39,  44,  41,  36
38, 234, 239, 236, 232,  34,  39,  36,  32
201, 450, 455, 454, 449, 250, 255, 254, 249
** ... 1120 like lines cut
*Element, type=C3D6H
4, 227, 231, 230,  27,  31,  30
204, 427, 431, 430, 227, 231, 230
404, 627, 631, 630, 427, 431, 430
604, 827, 831, 830, 627, 631, 630
804, 1027, 1031, 1030,  827,  831,  830
1004, 1227, 1231, 1230, 1027, 1031, 1030
1204, 1427, 1431, 1430, 1227, 1231, 1230
1404, 1627, 1631, 1630, 1427, 1431, 1430
1604, 1827, 1831, 1830, 1627, 1631, 1630
1804, 2027, 2031, 2030, 1827, 1831, 1830
2004, 2227, 2231, 2230, 2027, 2031, 2030
2204, 2427, 2431, 2430, 2227, 2231, 2230
2404, 2627, 2631, 2630, 2427, 2431, 2430
2604, 2827, 2831, 2830, 2627, 2631, 2630
2804, 3027, 3031, 3030, 2827, 2831, 2830
3004, 3227, 3231, 3230, 3027, 3031, 3030
3204, 3427, 3431, 3430, 3227, 3231, 3230
3404, 3627, 3631, 3630, 3427, 3431, 3430
3604, 3827, 3831, 3830, 3627, 3631, 3630
3804, 4027, 4031, 4030, 3827, 3831, 3830
** ... 40 like lines cut
*ELSET, GEN, ELSET=TREAD
        1,    11801,      200,
        2,    11802,      200,
        3,    11803,      200,
        4,    11804,      200,
        5,    11805,      200,
        7,    11807,      200,
*ELSET, GEN, ELSET=SIDE 
       15,    11815,      200,
       16,    11816,      200,
       17,    11817,      200,
       18,    11818,      200,
       19,    11819,      200,
       20,    11820,      200,
       21,    11821,      200,
       29,    11829,      200,
       30,    11830,      200,
       31,    11831,      200,
*ELSET, GEN, ELSET=BELT
       35,    11835,      200,
       36,    11836,      200,
       37,    11837,      200,
       38,    11838,      200,
*Orientation, name=Ori-1, system=CYLINDRICAL
0., 0., 0., 0., 1., 0.
1, 90.
*Solid Section, elset=TREAD, orientation=Ori-1, material=RUBBER
*Solid Section, elset=SIDE,  orientation=Ori-1, material=RUBBER
*Solid Section, elset=BELT,  orientation=Ori-1, material=RUBBER
*End Instance
*End Assembly
** 
** MATERIALS
** 
*Material, name=RUBBER
*Hyperelastic,n=1,moduli=long term
 1.0e6,  
*Viscoelastic,time=prony
 0.3, 0.0, 0.1
*density
 1100.,
** ----------------------------------------------------------------
** 
** STEP: Step-1
** 
*Step, name=Step-1, nlgeom
*Static
0.1, 1., 1e-05, 1.
** 
** OUTPUT REQUESTS
** 
*Restart, write, frequency=0
** 
** FIELD OUTPUT: F-Output-1
** 
*Output, field, variable=PRESELECT
** 
** HISTORY OUTPUT: H-Output-1
** 
*Output, history, variable=PRESELECT
*El Print, freq=999999
*Node Print, freq=999999
*End Step
