** NVH: Brake squeal analysis
** For import into Abaqus/CAE via the workshop script ws_nvh_brake_squeal.py
** 
*Heading
*Preprint, echo=NO, model=NO, history=NO, contact=NO
** ----------------------------------------------------------------
*Node
      1,     39.46315,   85.1925201, 0.0141869998
      2,   49.5086403,   75.1659775,   16.2656593
      3,   42.6565018,     62.15588,   11.5631504
      4,  -12.9161997,   76.6741333,   9.01001835
      5,   47.6118698,   76.1872406,   16.2652798
      6,   44.9531097,   70.8378983,     9.012887
      7,   45.0502892,   71.0206985,   12.6924105
      8,   43.8789711,   68.7871094,   12.4483204
      9,   43.7371101,   68.5189438,   9.01266193
     10,   45.1474609,   71.2034988,   16.3719292
     11,   17.5920792,   73.7683792,   17.2573795
     12,   42.4955711,   66.1471786,   14.9669399
     13,   42.8774109,   66.8770218,   12.5494804
     14,      46.5555,   73.8895493,     15.12397
     15,   28.9877605,   70.5018311,     12.46105
     16,   31.9004993,    79.857048,   10.3799105
     17,   29.5068092,   72.1075974,   9.42260265
     18,   35.3267288,   78.8538895,   15.1241999
     19,   32.5934792,   82.4779663,   16.2630692
     20,   27.5023003,   70.9767227,   12.4609804
** ... 37023 like lines cut
*Element, type=C3D8I
    1,  3717,  3715,  3716,  3719,  3701,  3698,  3699,  3700
    2,  1593,  1589,  1598,  1592,  1577,  1573,  1582,  1576
    3,  3720,  3867,  3868,  3869,  3703,  3705,  3706,  3711
    4,  3718,  3875,  3864,  4464,  3702,  3709,  3708,  4509
    5,  6574,  3721,  3875,  3718,  6619,  3704,  3709,  3702
    6,  3757,  3758,  3720,  3869,  3716,  3715,  3703,  3711
    7,  3791,  3790,  3875,  3721,  3717,  3719,  3709,  3704
    8,  3870,  3869,  3868,  6719,  3712,  3711,  3706,  6714
    9,  3865,  6719,  3868,  3867,  3707,  6714,  3706,  3705
   10,  3759,  3864,  3875,  3790,  3714,  3708,  3709,  3719
   11,  1597,  1591,  1590,  1596,  1581,  1575,  1574,  1580
   12,  1594,  1599,  1593,  1592,  1578,  1583,  1577,  1576
   13,  1595,  1602,  1599,  1594,  1579,  1586,  1583,  1578
   14,  1897,  1597,  1596,  6939,  1911,  1581,  1580,  6855
   15,  1598,  1597,  1897,  6726,  1582,  1581,  1911,  6715
   16,  1602,  1601,  1600,  1599,  1586,  1585,  1584,  1583
   17,  1615,  1616,  1604,  1609,  1599,  1600,  1588,  1593
   18,  1607,  1605,  1603,  1606,  1591,  1589,  1587,  1590
   19,  6731,  3757,  3869,  3870,  6941,  3716,  3711,  3712
   20,  1609,  1604,  1603,  1605,  1593,  1588,  1587,  1589
** ... 25021 like lines cut
*Element, type=C3D6
21530,  3199,  2707,  3243,  4304,  6767,  4296
21531,  3100,  3244,  2706,  4350,  4297,  6779
21532,  6246,  6176,  6818,  3100,  3244,  2706
21533,  6186,  6812,  6175,  3199,  2707,  3243
21534,  6553,  6843,  6300,  3072,  2704,  2841
21535,  6266,  6573,  6865,  2827,  2828,  2702
21536,  3102,  3101,  2703,  4348,  4349,  6826
21537,  6244,  6245,  6850,  3102,  3101,  2703
21538,  3072,  2704,  2841,  4443,  6817,  4402
21539,  2827,  2828,  2702,  4369,  4463,  6836
21540,  2810,  2698,  2811,  4478,   266,   565
21541,  6588,   262,   327,  2810,  2698,  2811
21542,   316,   253,   317,  2770,   232,   239
21543,  2770,   232,   239,   554,   267,   555
21544,  2758,  2811,  2698,   538,   565,   266
21545,   300,   327,   262,  2758,  2811,  2698
21546,  7192,   317,   253,  7297,   239,   232
21547,  7297,   239,   232,  7118,   555,   267
21548,  7309,   182,   188,  7133,  7050,  7134
21549,  7242,   209,  7243,  7309,   182,   188
** ... 1064 like lines cut
*Nset, nset=INNER-EAR-CONST
 26556, 26557, 26558, 26573, 26578, 26582, 26583, 26619, 26620, 26624, 26629, 26644, 26645, 26646, 27575, 27605
 27606, 27607, 27608, 27609, 27611, 29380, 29381, 29382, 29397, 29402, 29406, 29407, 29443, 29444, 29448, 29454
 29469, 29470, 29471, 30499, 30530, 30531, 30532, 30533, 30534, 30536
*Nset, nset=NSC1
   193,  1563,  1579,  1595,  1611,  1627,  1643,  1659,  1675,  1691,  1707,  1723,  1739,  1755,  1771,  1787
  1803,  1819,  1835,  1851,  1867,  1883,  4433,  6579,  6972,  7255,  7404,  7661,  7825,  8082,  8252,  8509
  8666,  8923,  9092,  9349,  9506,  9763,  9924, 10181, 10352, 10609, 10766, 11023, 12462, 12719, 12886, 13143
 13218, 13244, 13260, 13276, 13308, 13320, 13331, 13363, 13370, 13439, 13455, 13516, 13594, 13651, 13660, 13865
 14070, 14280, 14348, 14606, 15283, 15491, 15701, 15908, 16144, 16352, 16557, 16765, 16982, 17189, 17399, 17606
 17816, 18024, 18237, 18444, 18684, 18894, 18913, 19004, 19040, 19100, 19169, 19208, 19418, 19486, 19744, 19852
 19853, 19856, 19862, 19863, 19917, 19928, 19929, 19930, 19931, 19932, 19943, 19944, 19945, 19946, 19947, 19948
 19949, 19950, 19952, 19953, 19954, 19955, 19956, 19957, 20012, 20013, 20014, 20027, 20033, 20058, 20060, 20061
 20063, 20072, 20079, 20081, 20082, 20084, 20085, 20086, 20090, 20091, 20092, 20093, 20094, 20098, 20099, 20101
 20102, 20103, 20106, 20107, 20110, 20111, 20112, 20114, 20115, 20119, 20120, 20121, 20122, 20123, 20128, 20129
 20130, 20131, 20136, 20137, 20138, 20145, 20146, 20147, 20149, 20153, 20154, 20156, 20158, 20161, 20162, 20165
 20166, 20167, 20169, 20170, 20174, 20177, 20178, 20183, 20184, 20185, 20186, 20187, 20192, 20193, 20194, 20195
 20196, 20201, 20202, 20203, 20204, 20205, 20210, 20211, 20212, 20214, 20215, 20220, 20221, 20222, 20223, 20224
 20229, 20230, 20231, 20232, 20233, 20237, 20238, 20240, 20241, 20242, 20245, 20246, 20249, 20250, 20251, 20253
 20254, 20258, 20260, 20261, 20262, 20267, 20268, 20269, 20270, 20271, 20277, 20278, 20280, 20285, 20286, 20287
 20288, 20289, 20292, 20293, 20294, 20295, 20296, 20299, 20300, 20301, 20302, 20303, 20304, 20305, 20306, 20307
 20308, 20309, 20310, 20311, 20312, 20313, 20314, 20315, 20316, 20317, 20318, 20319, 20320, 20321, 20322, 20323
 20324, 20325, 20326, 20327, 20328, 20329, 20330, 20331, 20332, 20333, 20334, 20335, 20339, 20340, 20359, 20360
 20361, 20366, 20367, 20368, 20373, 20374, 20375, 20380, 20381, 20382, 20387, 20388, 20389, 20394, 20395, 20401
 20408, 20415, 20421, 20428, 20435, 20436, 20437, 20438, 20439, 20440, 20441, 20443, 20444, 20445, 20446, 20447
** ... 200 like lines cut
*TRANSFORM, TYPE=C, NSET=NSC1
3.746444  , -7.6746   , 24.50679  ,  3.746444  ,  -7.6746   ,  25.50679
*Nset, nset=OUTER-EAR-CONST
 32478, 32668, 32669, 32670, 32671, 32674, 32678, 33980, 33981, 33982, 33997, 34003, 34007, 34008, 34044, 34045
 34049, 34055, 34070, 34071, 34072, 34628, 34629, 34630, 34644, 34649, 34653, 34655, 34693, 34694, 34698, 34702
 34716, 34717, 34718, 35903, 35905, 35906, 35907, 35908, 35909, 35931
*Nset, nset=ROTOR, generate
     1,  25457,      1
*Nset, nset=ROTOR-CONSTR
 20111, 20157, 20175, 20176, 20259, 20279, 20318, 20488, 20489, 20490, 20491, 20492, 20493, 20494, 20503, 20509
 20515, 20522, 20523, 20529, 20535, 20537, 20542, 20546, 20547, 20548, 20549, 20552, 20553, 20554, 20561, 20565
 20566, 20567, 20568, 20569, 20570, 20571, 20577, 20581, 20582, 20583, 20584, 20585, 20586, 20587, 20597, 20598
 20601, 20603, 20605, 20609, 20612, 20613, 20614, 20616, 20617, 20618, 20620, 20621, 20622, 20624, 20625, 20626
 20627, 20628, 20629, 20630, 20635, 20640, 20641, 20687, 20689, 20692, 20693, 20695, 20697, 20706, 20710, 20719
 20720, 20722, 20724, 20747, 20884, 20885
*Elset, elset=BACK-PLATE-SOLID-INNER
 16554, 16555, 16556, 16557, 16558, 16559, 16560, 16561, 16562, 16563, 16564, 16565, 16566, 16567, 16568, 16569
 16570, 16571, 16572, 16573, 16574, 16575, 16576, 16577, 16578, 16579, 16580, 16581, 16582, 16583, 16584, 16585
 16586, 16587, 16588, 16589, 16590, 16591, 16592, 16593, 16594, 16595, 16596, 16597, 16598, 16599, 16600, 16601
 16602, 16603, 16604, 16605, 16606, 16607, 16608, 16609, 16610, 16611, 16612, 16613, 16614, 16615, 16616, 16617
 16618, 16619, 16620, 16621, 16622, 16623, 16624, 16625, 16626, 16627, 16628, 16629, 16630, 16631, 16632, 16633
 16634, 16635, 16636, 16637, 16638, 16639, 16640, 16641, 16642, 16643, 16644, 16645, 16646, 16647, 16648, 16649
 16650, 16651, 16652, 16653, 16654, 16655, 16656, 16657, 16658, 16659, 16660, 16661, 16662, 16663, 16664, 16665
 16666, 16667, 16668, 16669, 16670, 16671, 16672, 16673, 16674, 16675, 16676, 16677, 16678, 16679, 16680, 16681
 16682, 16683, 16684, 16685, 16686, 16687, 16688, 16689, 16690, 16691, 16692, 16693, 16694, 16695, 16696, 16697
 16698, 16699, 16700, 16701, 16702, 16703, 16704, 16705, 16706, 16707, 16708, 16709, 16710, 16711, 16712, 16713
 16714, 16715, 16716, 16717, 16718, 16719, 16720, 16721, 16722, 16723, 16724, 16725, 16726, 16727, 16728, 16729
 16730, 16731, 16732, 16733, 16734, 16735, 16736, 16737, 16738, 16739, 16740, 16741, 16742, 16743, 16744, 16745
 16746, 16747, 16748, 16749, 16750, 16751, 16752, 16753, 16754, 16755, 16756, 16757, 16758, 16759, 16760, 16761
 16762, 16763, 16764, 16765, 16766, 16767, 16768, 16769, 16770, 16771, 16772, 16773, 16774, 16775, 16776, 16777
 16778, 16779, 16780, 16781, 16782, 16783, 16784, 16785, 16786, 16787, 16788, 16789, 16790, 16791, 16792, 16793
 16794, 16795, 16796, 16797, 16798, 16799, 16800, 16801, 16802, 16803, 16804, 16805, 16806, 16807, 16808, 16809
 16810, 16811, 16812, 16813, 16814, 16815, 16816, 16817, 16818, 16819, 16820, 16821, 16822, 16823, 16824, 16825
 16826, 16827, 16828, 16829, 16830, 16831, 16832, 16833, 16834, 16835, 16836, 16837, 16838, 16839, 16840, 16841
 16842, 16843, 16844, 16845, 16846, 16847, 16848, 16849, 16850, 16851, 16852, 16853, 16854, 16855, 16856, 16857
 16858, 16859, 16860, 16861, 16862, 16863, 16864, 16865, 16866, 16867, 16868, 16869, 16870, 16871, 16872, 16873
** ... 95 like lines cut
*Elset, elset=INSULATOR-INNER
 20010, 20011, 20012, 20013, 20014, 20015, 20016, 20017, 20018, 20019, 20020, 20021, 20022, 20023, 20024, 20025
 20026, 20027, 20028, 20029, 20030, 20031, 20032, 20033, 20034, 20035, 20036, 20037, 20038, 20039, 20040, 20041
 20042, 20043, 20044, 20045, 20046, 20047, 20048, 20049, 20050, 20051, 20052, 20053, 20054, 20055, 20056, 20057
 20058, 20059, 20060, 20061, 20062, 20063, 20064, 20065, 20066, 20067, 20068, 20069, 20070, 20071, 20072, 20073
 20074, 20075, 20076, 20077, 20078, 20079, 20080, 20081, 20082, 20083, 20084, 20085, 20086, 20087, 20088, 20089
 20090, 20091, 20092, 20093, 20094, 20095, 20096, 20097, 20098, 20099, 20100, 20101, 20102, 20103, 20104, 20105
 20106, 20107, 20108, 20109, 20110, 20111, 20112, 20113, 20114, 20115, 20116, 20117, 20118, 20119, 20120, 20121
 20122, 20123, 20124, 20125, 20126, 20127, 20128, 20129, 20130, 20131, 20132, 20133, 20134, 20135, 20136, 20137
 20138, 20139, 20140, 20141, 20142, 20143, 20144, 20145, 20146, 20147, 20148, 20149, 20150, 20151, 20152, 20153
 20154, 20155, 20156, 20157, 20158, 20159, 20160, 20161, 20162, 20163, 20164, 20165, 20166, 20167, 20168, 20169
 20170, 20171, 20172, 20173, 20174, 20175, 20176, 20177, 20178, 20179, 20180, 20181, 20182, 20183, 20184, 20185
 20186, 20187, 20188, 20189, 20190, 20191, 20192, 20193, 20194, 20195, 20196, 20197, 20198, 20199, 20200, 20201
 20202, 20203, 20204, 20205, 20206, 20207, 20208, 20209, 20210, 20211, 20212, 20213, 20214, 20215, 20216, 20217
 20218, 20219, 20220, 20221, 20222, 20223, 20224, 20225, 20226, 20227, 20228, 20229, 20230, 20231, 20232, 20233
 20234, 20235, 20236, 20237, 20238, 20239, 20240, 20241, 20242, 20243, 20244, 20245, 20246, 20247, 20248, 20249
 20250, 20251, 20252, 20253, 20254, 20255, 20256, 20257, 20258, 20259, 20260, 20261, 20262, 20263, 20264, 20265
 20266, 20267, 20268, 20269, 20270, 20271, 20272, 20273, 20274, 20275, 20276, 20277, 20278, 20279, 20280, 20281
 20282, 20283, 20284, 20285, 20286, 20287, 20288, 20289, 20290, 20291, 20292, 20293, 20294, 20295, 20296, 20297
 20298, 20299, 20300, 20301, 20302, 20303, 20304, 20305, 20306, 20307, 20308, 20309, 20310, 20311, 20312, 20313
 20314, 20315, 20316, 20317, 20318, 20319, 20320, 20321, 20322, 20323, 20324, 20325, 20326, 20327, 20328, 20329
** ... 31 like lines cut
*Elset, elset=INSULATOR-LOAD1
 20817, 20818, 20819, 20820, 20821, 20822, 20823, 20824, 20825, 20826, 20827, 20828, 20829, 20830, 20831, 20832
 20833, 20834, 20835, 20836, 20837, 20838, 20839, 20840, 20841, 20842, 20843, 20844, 20845, 20846, 20847, 20848
 20849, 20850, 20851, 20852, 20853, 20854, 20855, 20856, 20857, 20858, 20859, 20860, 20861, 20862, 20863, 20864
 20865, 20866, 20867, 20868, 20869, 20870, 20871, 20872, 20873, 20874, 20875, 20876, 20877, 20878, 20879, 20880
 20881, 20882, 20883, 20884, 20885, 20886, 20887, 20888, 20889, 20890, 20891, 20892, 20893, 20894, 20895, 20896
 20897, 20898, 20899, 20900, 20901, 20902, 20903, 20904, 20905, 20906, 20907, 20908, 20909, 20910, 20911, 20912
 20913, 20914, 20915, 20916, 20917, 20918, 20919, 20920, 20921, 20922, 20923, 20924, 20925, 20926, 20927, 20928
 20929, 20930, 20931, 20932, 20933, 20934, 20935, 20936, 20937, 20938, 20939, 20940, 20941, 20942, 20943, 20944
 20945, 20946, 20947, 20948, 20949, 20950, 20952, 20953, 20954, 20956, 20957, 20958, 20959, 20960, 20961, 20962
 20963, 20964, 20965, 20966, 20967, 20968, 20969, 20970, 20971, 20972, 20973, 20974, 20975, 20976, 20977, 20978
 20979, 20980, 20981, 20982, 20983, 20984, 20985, 20986, 20987, 20988, 20989, 20990, 20991, 20992, 20993, 20994
 20995, 20996, 20997, 20998, 20999, 21000, 21001, 21002, 21003, 21004, 21005, 21006, 21007, 21008, 21009, 21010
 21011, 21012, 21013, 21014, 21015, 21016, 21017, 21018, 21019, 21020, 21022, 21023, 21024, 21025, 21026, 21027
 21028, 21029, 21030, 21031, 21032, 21033, 21034, 21035, 21036, 21037, 21038, 21039, 21040, 21041, 21042, 21043
 21044, 21045, 21046, 21047, 21048, 21049, 21050, 21051, 21052, 21053, 21054, 21055, 21056, 21057, 21058, 21059
 21060, 21061, 21062, 21063, 21064, 21065, 21066, 21067, 21068, 21069, 21070, 21071, 21072, 21073, 21074, 21075
 21076, 21077, 21078, 21079, 21080, 21081, 21082, 21083, 21084, 21085, 21086, 21087, 21088, 21089, 21090, 21091
 21092, 21093, 21094, 21095, 21096, 21097, 21098, 21099, 21100, 21101, 21102, 21103, 21104, 21105, 21106, 21107
 21108, 21109, 21110, 21111, 21112, 21113, 21114, 21115, 21116, 21117, 21118, 21119, 21120, 21121, 21122, 21123
 21124, 21125, 21126, 21127, 21128, 21129, 21130, 21131, 21132, 21133, 21134, 21135, 21136, 21137, 21138, 21139
** ... 25 like lines cut
*Elset, elset=INSULATOR-LOAD2
 20010, 20011, 20012, 20013, 20014, 20015, 20016, 20017, 20018, 20019, 20020, 20021, 20022, 20023, 20024, 20025
 20026, 20027, 20028, 20029, 20030, 20031, 20032, 20033, 20034, 20035, 20036, 20037, 20038, 20039, 20040, 20041
 20042, 20043, 20044, 20045, 20046, 20047, 20048, 20049, 20050, 20051, 20052, 20053, 20054, 20055, 20056, 20057
 20058, 20059, 20060, 20061, 20062, 20063, 20064, 20065, 20066, 20067, 20068, 20069, 20070, 20071, 20072, 20073
 20074, 20075, 20076, 20077, 20078, 20079, 20080, 20081, 20082, 20083, 20084, 20085, 20086, 20087, 20088, 20089
 20090, 20091, 20092, 20093, 20094, 20095, 20096, 20097, 20098, 20099, 20100, 20101, 20102, 20103, 20104, 20105
 20106, 20107, 20108, 20109, 20110, 20111, 20112, 20113, 20114, 20115, 20116, 20117, 20118, 20119, 20120, 20121
 20122, 20123, 20124, 20125, 20126, 20127, 20128, 20129, 20130, 20131, 20132, 20133, 20134, 20135, 20136, 20137
 20138, 20139, 20140, 20141, 20142, 20143, 20144, 20145, 20146, 20147, 20148, 20149, 20150, 20151, 20152, 20153
 20154, 20155, 20156, 20157, 20158, 20159, 20160, 20161, 20162, 20163, 20164, 20165, 20166, 20167, 20168, 20169
 20170, 20171, 20172, 20173, 20174, 20175, 20176, 20177, 20179, 20180, 20181, 20182, 20183, 20184, 20185, 20186
 20187, 20188, 20189, 20190, 20191, 20192, 20193, 20194, 20195, 20196, 20197, 20198, 20199, 20200, 20201, 20202
 20203, 20204, 20205, 20206, 20207, 20208, 20209, 20210, 20211, 20212, 20213, 20214, 20215, 20216, 20217, 20218
 20219, 20220, 20221, 20222, 20223, 20224, 20225, 20226, 20227, 20228, 20229, 20230, 20231, 20232, 20233, 20234
 20235, 20236, 20237, 20238, 20239, 20240, 20241, 20242, 20243, 20244, 20245, 20246, 20247, 20248, 20249, 20250
 20251, 20252, 20253, 20254, 20255, 20256, 20257, 20258, 20259, 20260, 20261, 20262, 20263, 20264, 20265, 20266
 20267, 20268, 20269, 20270, 20271, 20272, 20273, 20274, 20275, 20276, 20277, 20278, 20279, 20280, 20281, 20282
 20283, 20284, 20285, 20286, 20287, 20288, 20289, 20290, 20291, 20292, 20293, 20294, 20295, 20296, 20297, 20298
 20299, 20300, 20301, 20302, 20303, 20304, 20305, 20306, 20307, 20308, 20309, 20310, 20311, 20312, 20313, 20314
 20315, 20316, 20317, 20318, 20319, 20320, 20321, 20322, 20323, 20324, 20325, 20326, 20327, 20328, 20329, 20330
** ... 25 like lines cut
*Elset, elset=INSULATOR-OUTER
 20770, 20771, 20772, 20773, 20774, 20775, 20776, 20777, 20778, 20779, 20780, 20781, 20782, 20783, 20784, 20785
 20786, 20787, 20788, 20789, 20790, 20791, 20792, 20793, 20794, 20795, 20796, 20797, 20798, 20799, 20800, 20801
 20802, 20803, 20804, 20805, 20806, 20807, 20808, 20809, 20810, 20811, 20812, 20813, 20814, 20815, 20816, 20817
 20818, 20819, 20820, 20821, 20822, 20823, 20824, 20825, 20826, 20827, 20828, 20829, 20830, 20831, 20832, 20833
 20834, 20835, 20836, 20837, 20838, 20839, 20840, 20841, 20842, 20843, 20844, 20845, 20846, 20847, 20848, 20849
 20850, 20851, 20852, 20853, 20854, 20855, 20856, 20857, 20858, 20859, 20860, 20861, 20862, 20863, 20864, 20865
 20866, 20867, 20868, 20869, 20870, 20871, 20872, 20873, 20874, 20875, 20876, 20877, 20878, 20879, 20880, 20881
 20882, 20883, 20884, 20885, 20886, 20887, 20888, 20889, 20890, 20891, 20892, 20893, 20894, 20895, 20896, 20897
 20898, 20899, 20900, 20901, 20902, 20903, 20904, 20905, 20906, 20907, 20908, 20909, 20910, 20911, 20912, 20913
 20914, 20915, 20916, 20917, 20918, 20919, 20920, 20921, 20922, 20923, 20924, 20925, 20926, 20927, 20928, 20929
 20930, 20931, 20932, 20933, 20934, 20935, 20936, 20937, 20938, 20939, 20940, 20941, 20942, 20943, 20944, 20945
 20946, 20947, 20948, 20949, 20950, 20951, 20952, 20953, 20954, 20955, 20956, 20957, 20958, 20959, 20960, 20961
 20962, 20963, 20964, 20965, 20966, 20967, 20968, 20969, 20970, 20971, 20972, 20973, 20974, 20975, 20976, 20977
 20978, 20979, 20980, 20981, 20982, 20983, 20984, 20985, 20986, 20987, 20988, 20989, 20990, 20991, 20992, 20993
 20994, 20995, 20996, 20997, 20998, 20999, 21000, 21001, 21002, 21003, 21004, 21005, 21006, 21007, 21008, 21009
 21010, 21011, 21012, 21013, 21014, 21015, 21016, 21017, 21018, 21019, 21020, 21021, 21022, 21023, 21024, 21025
 21026, 21027, 21028, 21029, 21030, 21031, 21032, 21033, 21034, 21035, 21036, 21037, 21038, 21039, 21040, 21041
 21042, 21043, 21044, 21045, 21046, 21047, 21048, 21049, 21050, 21051, 21052, 21053, 21054, 21055, 21056, 21057
 21058, 21059, 21060, 21061, 21062, 21063, 21064, 21065, 21066, 21067, 21068, 21069, 21070, 21071, 21072, 21073
 21074, 21075, 21076, 21077, 21078, 21079, 21080, 21081, 21082, 21083, 21084, 21085, 21086, 21087, 21088, 21089
** ... 31 like lines cut
*Elset, elset=OUTER-BACKPLATE-FEM
 18282, 18283, 18284, 18285, 18286, 18287, 18288, 18289, 18290, 18291, 18292, 18293, 18294, 18295, 18296, 18297
 18298, 18299, 18300, 18301, 18302, 18303, 18304, 18305, 18306, 18307, 18308, 18309, 18310, 18311, 18312, 18313
 18314, 18315, 18316, 18317, 18318, 18319, 18320, 18321, 18322, 18323, 18324, 18325, 18326, 18327, 18328, 18329
 18330, 18331, 18332, 18333, 18334, 18335, 18336, 18337, 18338, 18339, 18340, 18341, 18342, 18343, 18344, 18345
 18346, 18347, 18348, 18349, 18350, 18351, 18352, 18353, 18354, 18355, 18356, 18357, 18358, 18359, 18360, 18361
 18362, 18363, 18364, 18365, 18366, 18367, 18368, 18369, 18370, 18371, 18372, 18373, 18374, 18375, 18376, 18377
 18378, 18379, 18380, 18381, 18382, 18383, 18384, 18385, 18386, 18387, 18388, 18389, 18390, 18391, 18392, 18393
 18394, 18395, 18396, 18397, 18398, 18399, 18400, 18401, 18402, 18403, 18404, 18405, 18406, 18407, 18408, 18409
 18410, 18411, 18412, 18413, 18414, 18415, 18416, 18417, 18418, 18419, 18420, 18421, 18422, 18423, 18424, 18425
 18426, 18427, 18428, 18429, 18430, 18431, 18432, 18433, 18434, 18435, 18436, 18437, 18438, 18439, 18440, 18441
 18442, 18443, 18444, 18445, 18446, 18447, 18448, 18449, 18450, 18451, 18452, 18453, 18454, 18455, 18456, 18457
 18458, 18459, 18460, 18461, 18462, 18463, 18464, 18465, 18466, 18467, 18468, 18469, 18470, 18471, 18472, 18473
 18474, 18475, 18476, 18477, 18478, 18479, 18480, 18481, 18482, 18483, 18484, 18485, 18486, 18487, 18488, 18489
 18490, 18491, 18492, 18493, 18494, 18495, 18496, 18497, 18498, 18499, 18500, 18501, 18502, 18503, 18504, 18505
 18506, 18507, 18508, 18509, 18510, 18511, 18512, 18513, 18514, 18515, 18516, 18517, 18518, 18519, 18520, 18521
 18522, 18523, 18524, 18525, 18526, 18527, 18528, 18529, 18530, 18531, 18532, 18533, 18534, 18535, 18536, 18537
 18538, 18539, 18540, 18541, 18542, 18543, 18544, 18545, 18546, 18547, 18548, 18549, 18550, 18551, 18552, 18553
 18554, 18555, 18556, 18557, 18558, 18559, 18560, 18561, 18562, 18563, 18564, 18565, 18566, 18567, 18568, 18569
 18570, 18571, 18572, 18573, 18574, 18575, 18576, 18577, 18578, 18579, 18580, 18581, 18582, 18583, 18584, 18585
 18586, 18587, 18588, 18589, 18590, 18591, 18592, 18593, 18594, 18595, 18596, 18597, 18598, 18599, 18600, 18601
** ... 95 like lines cut
*Elset, elset=OUTER-PAD-FEM
 22510, 22511, 22512, 22513, 22514, 22515, 22516, 22517, 22518, 22519, 22520, 22521, 22522, 22523, 22524, 22525
 22526, 22527, 22528, 22529, 22530, 22531, 22532, 22533, 22534, 22535, 22536, 22537, 22538, 22539, 22540, 22541
 22542, 22543, 22544, 22545, 22546, 22547, 22548, 22549, 22550, 22551, 22552, 22553, 22554, 22555, 22556, 22557
 22558, 22559, 22560, 22561, 22562, 22563, 22564, 22565, 22566, 22567, 22568, 22569, 22570, 22571, 22572, 22573
 22574, 22575, 22576, 22577, 22578, 22579, 22580, 22581, 22582, 22583, 22584, 22585, 22586, 22587, 22588, 22589
 22590, 22591, 22592, 22593, 22594, 22595, 22596, 22597, 22598, 22599, 22600, 22601, 22602, 22603, 22604, 22605
 22606, 22607, 22608, 22609, 22610, 22611, 22612, 22613, 24370, 24371, 24372, 24373, 24374, 24375, 24376, 24377
 24378, 24379, 24380, 24381, 24382, 24383, 24384, 24385, 24386, 24387, 24388, 24389, 24390, 24391, 24392, 24393
 24394, 24395, 24396, 24397, 24398, 24399, 24400, 24401, 24402, 24403, 24404, 24405, 24406, 24407, 24408, 24409
 24410, 24411, 24412, 24413, 24414, 24415, 24416, 24417, 24418, 24419, 24420, 24421, 24422, 24423, 24424, 24425
 24426, 24427, 24428, 24429, 24430, 24431, 24432, 24433, 24434, 24435, 24436, 24437, 24438, 24439, 24440, 24441
 24442, 24443, 24444, 24445, 24446, 24447, 24448, 24449, 24450, 24451, 24452, 24453, 24454, 24455, 24456, 24457
 24458, 24459, 24460, 24461, 24462, 24463, 24464, 24465, 24466, 24467, 24468, 24469, 24470, 24471, 24472, 24473
 24474, 24475, 24476, 24477, 24478, 24479, 24480, 24481, 24482, 24483, 24484, 24485, 24486, 24487, 24488, 24489
 24490, 24491, 24492, 24493, 24494, 24495, 24496, 24497, 24498, 24499, 24500, 24501, 24502, 24503, 24504, 24505
 24506, 24507, 24508, 24509, 24510, 24511, 24512, 24513, 24514, 24515, 24516, 24517, 24518, 24519, 24520, 24521
 24522, 24523, 24524, 24525, 24526, 24527, 24528, 24529, 24530, 24531, 24532, 24533, 24534, 24535, 24536, 24537
 24538, 24539, 24540, 24541, 24542, 24543, 24544, 24545, 24546, 24547, 24548, 24549, 24550, 24551, 24552, 24553
 24554, 24555, 24556, 24557, 24558, 24559, 24560, 24561, 24562, 24563, 24564, 24565, 24566, 24567, 24568, 24569
 24570, 24571, 24572, 24573, 24574, 24575, 24576, 24577, 24578, 24579, 24580, 24581, 24582, 24583, 24584, 24585
** ... 97 like lines cut
*Elset, elset=PAD-SOLID-INNER
 22406, 22407, 22408, 22409, 22410, 22411, 22412, 22413, 22414, 22415, 22416, 22417, 22418, 22419, 22420, 22421
 22422, 22423, 22424, 22425, 22426, 22427, 22428, 22429, 22430, 22431, 22432, 22433, 22434, 22435, 22436, 22437
 22438, 22439, 22440, 22441, 22442, 22443, 22444, 22445, 22446, 22447, 22448, 22449, 22450, 22451, 22452, 22453
 22454, 22455, 22456, 22457, 22458, 22459, 22460, 22461, 22462, 22463, 22464, 22465, 22466, 22467, 22468, 22469
 22470, 22471, 22472, 22473, 22474, 22475, 22476, 22477, 22478, 22479, 22480, 22481, 22482, 22483, 22484, 22485
 22486, 22487, 22488, 22489, 22490, 22491, 22492, 22493, 22494, 22495, 22496, 22497, 22498, 22499, 22500, 22501
 22502, 22503, 22504, 22505, 22506, 22507, 22508, 22509, 22614, 22615, 22616, 22617, 22618, 22619, 22620, 22621
 22622, 22623, 22624, 22625, 22626, 22627, 22628, 22629, 22630, 22631, 22632, 22633, 22634, 22635, 22636, 22637
 22638, 22639, 22640, 22641, 22642, 22643, 22644, 22645, 22646, 22647, 22648, 22649, 22650, 22651, 22652, 22653
 22654, 22655, 22656, 22657, 22658, 22659, 22660, 22661, 22662, 22663, 22664, 22665, 22666, 22667, 22668, 22669
 22670, 22671, 22672, 22673, 22674, 22675, 22676, 22677, 22678, 22679, 22680, 22681, 22682, 22683, 22684, 22685
 22686, 22687, 22688, 22689, 22690, 22691, 22692, 22693, 22694, 22695, 22696, 22697, 22698, 22699, 22700, 22701
 22702, 22703, 22704, 22705, 22706, 22707, 22708, 22709, 22710, 22711, 22712, 22713, 22714, 22715, 22716, 22717
 22718, 22719, 22720, 22721, 22722, 22723, 22724, 22725, 22726, 22727, 22728, 22729, 22730, 22731, 22732, 22733
 22734, 22735, 22736, 22737, 22738, 22739, 22740, 22741, 22742, 22743, 22744, 22745, 22746, 22747, 22748, 22749
 22750, 22751, 22752, 22753, 22754, 22755, 22756, 22757, 22758, 22759, 22760, 22761, 22762, 22763, 22764, 22765
 22766, 22767, 22768, 22769, 22770, 22771, 22772, 22773, 22774, 22775, 22776, 22777, 22778, 22779, 22780, 22781
 22782, 22783, 22784, 22785, 22786, 22787, 22788, 22789, 22790, 22791, 22792, 22793, 22794, 22795, 22796, 22797
 22798, 22799, 22800, 22801, 22802, 22803, 22804, 22805, 22806, 22807, 22808, 22809, 22810, 22811, 22812, 22813
 22814, 22815, 22816, 22817, 22818, 22819, 22820, 22821, 22822, 22823, 22824, 22825, 22826, 22827, 22828, 22829
** ... 97 like lines cut
*Elset, elset=PADIN-ROT-A
 22483, 22484, 22485, 22486, 22489, 22492, 22493, 22494, 22495, 22496, 22497, 22498, 22499, 22500, 22501, 22502
 22503, 22504, 22505, 22506, 22507, 23901, 23938, 23939, 23940, 23941, 23942, 23943, 23944, 23945, 23951, 23953
 23955, 23962, 23964, 23967, 23968, 23969, 23970, 23971, 23972, 23973, 23974, 23975, 23976, 23977, 23978, 23980
 23981, 23988, 23989, 24016, 24019, 24020, 24021, 24022, 24023, 24024, 24025, 24026, 24027, 24028, 24029, 24030
 24031, 24032, 24033, 24034, 24035, 24036, 24037, 24038, 24039, 24040, 24041, 24043, 24044, 24045, 24046, 24047
 24048, 24049, 24050, 24051, 24052, 24053, 24054, 24055, 24056, 24057, 24058, 24059, 24060, 24061, 24062, 24063
 24064, 24065, 24066, 24067, 24068, 24069, 24070, 24071, 24072, 24073, 24074, 24075, 24076, 24077, 24078, 24079
 24080, 24081, 24082, 24083, 24084, 24085, 24086, 24087, 24088, 24089, 24090, 24091, 24092, 24093, 24094, 24095
 24096, 24097, 24098, 24099, 24101, 24102, 24103, 24104, 24105, 24106, 24107, 24108, 24109, 24110, 24111, 24112
 24113, 24114, 24115, 24116, 24117, 24118, 24119, 24120, 24121, 24122, 24123, 24124, 24125, 24126, 24127, 24128
 24129, 24130, 24131, 24132, 24133, 24134, 24135, 24136, 24137, 24138, 24139, 24140, 24141, 24142, 24143, 24144
 24145, 24146, 24147, 24148, 24149, 24150, 24151, 24152, 24153, 24154, 24155, 24156, 24157, 24158, 24159, 24160
 24161, 24162, 24163, 24164, 24165, 24166, 24167, 24168, 24169, 24170, 24171, 24172, 24173, 24174, 24175, 24176
 24177, 24178, 24179, 24180, 24181, 24182, 24183, 24184, 24185, 24186, 24187, 24188, 24189, 24190, 24191, 24192
 24193, 24194, 24195, 24196, 24197, 24198, 24199, 24200, 24201, 24202, 24203, 24204, 24205, 24206, 24207, 24208
 24209, 24210, 24211, 24212, 24213, 24214, 24215, 24216, 24217, 24218, 24219, 24220, 24221, 24222, 24223, 24224
 24225, 24226, 24227, 24228, 24229, 24230, 24231, 24232, 24233, 24234, 24235, 24236, 24237, 24238, 24239, 24240
 24241, 24242, 24243, 24244, 24245, 24246, 24247, 24248, 24249, 24250, 24251, 24252, 24253, 24254, 24255, 24256
 24257, 24258, 24259, 24260, 24261, 24262, 24263, 24264, 24265, 24266, 24267, 24268, 24269, 24270, 24271, 24272
 24273, 24274, 24275, 24276, 24277, 24278, 24279, 24280, 24281, 24282, 24283
*Elset, elset=PADIN-ROT-B
 22431, 22432, 22433, 22434, 22437, 22440, 22441, 22442, 22443, 22444, 22445, 22446, 22447, 22448, 22449, 22450
 22451, 22452, 22453, 22454, 22455, 23023, 23060, 23061, 23062, 23063, 23064, 23065, 23066, 23067, 23073, 23075
 23077, 23084, 23086, 23089, 23090, 23091, 23092, 23093, 23094, 23095, 23096, 23097, 23098, 23099, 23100, 23102
 23103, 23110, 23111, 23138, 23141, 23142, 23143, 23144, 23145, 23146, 23147, 23148, 23149, 23150, 23151, 23152
 23153, 23154, 23155, 23156, 23157, 23158, 23159, 23160, 23161, 23162, 23163, 23165, 23166, 23167, 23168, 23169
 23170, 23171, 23172, 23173, 23174, 23175, 23176, 23177, 23178, 23179, 23180, 23181, 23182, 23183, 23184, 23185
 23186, 23187, 23188, 23189, 23190, 23191, 23192, 23193, 23194, 23195, 23196, 23197, 23198, 23199, 23200, 23201
 23202, 23203, 23204, 23205, 23206, 23207, 23208, 23209, 23210, 23211, 23212, 23213, 23214, 23215, 23216, 23217
 23218, 23219, 23220, 23221, 23223, 23224, 23225, 23226, 23227, 23228, 23229, 23230, 23231, 23232, 23233, 23234
 23235, 23236, 23237, 23238, 23239, 23240, 23241, 23242, 23243, 23244, 23245, 23246, 23247, 23248, 23249, 23250
 23251, 23252, 23253, 23254, 23255, 23256, 23257, 23258, 23259, 23260, 23261, 23262, 23263, 23264, 23265, 23266
 23267, 23268, 23269, 23270, 23271, 23272, 23273, 23274, 23275, 23276, 23277, 23278, 23279, 23280, 23281, 23282
 23283, 23284, 23285, 23286, 23287, 23288, 23289, 23290, 23291, 23292, 23293, 23294, 23295, 23296, 23297, 23298
 23299, 23300, 23301, 23302, 23303, 23304, 23305, 23306, 23307, 23308, 23309, 23310, 23311, 23312, 23313, 23314
 23315, 23316, 23317, 23318, 23319, 23320, 23321, 23322, 23323, 23324, 23325, 23326, 23327, 23328, 23329, 23330
 23331, 23332, 23333, 23334, 23335, 23336, 23337, 23338, 23339, 23340, 23341, 23342, 23343, 23344, 23345, 23346
 23347, 23348, 23349, 23350, 23351, 23352, 23353, 23354, 23355, 23356, 23357, 23358, 23359, 23360, 23361, 23362
 23363, 23364, 23365, 23366, 23367, 23368, 23369, 23370, 23371, 23372, 23373, 23374, 23375, 23376, 23377, 23378
 23379, 23380, 23381, 23382, 23383, 23384, 23385, 23386, 23387, 23388, 23389, 23390, 23391, 23392, 23393, 23394
 23395, 23396, 23397, 23398, 23399, 23400, 23401, 23402, 23403, 23404, 23405
*Elset, elset=PADOUT-ROT-A
 22535, 22536, 22537, 22538, 22541, 22544, 22545, 22546, 22547, 22548, 22549, 22550, 22551, 22552, 22553, 22554
 22555, 22556, 22557, 22558, 22559, 24779, 24816, 24817, 24818, 24819, 24820, 24821, 24822, 24823, 24829, 24831
 24833, 24840, 24842, 24845, 24846, 24847, 24848, 24849, 24850, 24851, 24852, 24853, 24854, 24855, 24856, 24858
 24859, 24866, 24867, 24894, 24897, 24898, 24899, 24900, 24901, 24902, 24903, 24904, 24905, 24906, 24907, 24908
 24909, 24910, 24911, 24912, 24913, 24914, 24915, 24916, 24917, 24918, 24919, 24921, 24922, 24923, 24924, 24925
 24926, 24927, 24928, 24929, 24930, 24931, 24932, 24933, 24934, 24935, 24936, 24937, 24938, 24939, 24940, 24941
 24942, 24943, 24944, 24945, 24946, 24947, 24948, 24949, 24950, 24951, 24952, 24953, 24954, 24955, 24956, 24957
 24958, 24959, 24960, 24961, 24962, 24963, 24964, 24965, 24966, 24967, 24968, 24969, 24970, 24971, 24972, 24973
 24974, 24975, 24976, 24977, 24979, 24980, 24981, 24982, 24983, 24984, 24985, 24986, 24987, 24988, 24989, 24990
 24991, 24992, 24993, 24994, 24995, 24996, 24997, 24998, 24999, 25000, 25001, 25002, 25003, 25004, 25005, 25006
 25007, 25008, 25009, 25010, 25011, 25012, 25013, 25014, 25015, 25016, 25017, 25018, 25019, 25020, 25021, 25022
 25023, 25024, 25025, 25026, 25027, 25028, 25029, 25030, 25031, 25032, 25033, 25034, 25035, 25036, 25037, 25038
 25039, 25040, 25041, 25042, 25043, 25044, 25045, 25046, 25047, 25048, 25049, 25050, 25051, 25052, 25053, 25054
 25055, 25056, 25057, 25058, 25059, 25060, 25061, 25062, 25063, 25064, 25065, 25066, 25067, 25068, 25069, 25070
 25071, 25072, 25073, 25074, 25075, 25076, 25077, 25078, 25079, 25080, 25081, 25082, 25083, 25084, 25085, 25086
 25087, 25088, 25089, 25090, 25091, 25092, 25093, 25094, 25095, 25096, 25097, 25098, 25099, 25100, 25101, 25102
 25103, 25104, 25105, 25106, 25107, 25108, 25109, 25110, 25111, 25112, 25113, 25114, 25115, 25116, 25117, 25118
 25119, 25120, 25121, 25122, 25123, 25124, 25125, 25126, 25127, 25128, 25129, 25130, 25131, 25132, 25133, 25134
 25135, 25136, 25137, 25138, 25139, 25140, 25141, 25142, 25143, 25144, 25145, 25146, 25147, 25148, 25149, 25150
 25151, 25152, 25153, 25154, 25155, 25156, 25157, 25158, 25159, 25160, 25161
*Elset, elset=PADOUT-ROT-B
 22587, 22588, 22589, 22590, 22593, 22596, 22597, 22598, 22599, 22600, 22601, 22602, 22603, 22604, 22605, 22606
 22607, 22608, 22609, 22610, 22611, 25657, 25694, 25695, 25696, 25697, 25698, 25699, 25700, 25701, 25707, 25709
 25711, 25718, 25720, 25723, 25724, 25725, 25726, 25727, 25728, 25729, 25730, 25731, 25732, 25733, 25734, 25736
 25737, 25744, 25745, 25772, 25775, 25776, 25777, 25778, 25779, 25780, 25781, 25782, 25783, 25784, 25785, 25786
 25787, 25788, 25789, 25790, 25791, 25792, 25793, 25794, 25795, 25796, 25797, 25799, 25800, 25801, 25802, 25803
 25804, 25805, 25806, 25807, 25808, 25809, 25810, 25811, 25812, 25813, 25814, 25815, 25816, 25817, 25818, 25819
 25820, 25821, 25822, 25823, 25824, 25825, 25826, 25827, 25828, 25829, 25830, 25831, 25832, 25833, 25834, 25835
 25836, 25837, 25838, 25839, 25840, 25841, 25842, 25843, 25844, 25845, 25846, 25847, 25848, 25849, 25850, 25851
 25852, 25853, 25854, 25855, 25857, 25858, 25859, 25860, 25861, 25862, 25863, 25864, 25865, 25866, 25867, 25868
 25869, 25870, 25871, 25872, 25873, 25874, 25875, 25876, 25877, 25878, 25879, 25880, 25881, 25882, 25883, 25884
 25885, 25886, 25887, 25888, 25889, 25890, 25891, 25892, 25893, 25894, 25895, 25896, 25897, 25898, 25899, 25900
 25901, 25902, 25903, 25904, 25905, 25906, 25907, 25908, 25909, 25910, 25911, 25912, 25913, 25914, 25915, 25916
 25917, 25918, 25919, 25920, 25921, 25922, 25923, 25924, 25925, 25926, 25927, 25928, 25929, 25930, 25931, 25932
 25933, 25934, 25935, 25936, 25937, 25938, 25939, 25940, 25941, 25942, 25943, 25944, 25945, 25946, 25947, 25948
 25949, 25950, 25951, 25952, 25953, 25954, 25955, 25956, 25957, 25958, 25959, 25960, 25961, 25962, 25963, 25964
 25965, 25966, 25967, 25968, 25969, 25970, 25971, 25972, 25973, 25974, 25975, 25976, 25977, 25978, 25979, 25980
 25981, 25982, 25983, 25984, 25985, 25986, 25987, 25988, 25989, 25990, 25991, 25992, 25993, 25994, 25995, 25996
 25997, 25998, 25999, 26000, 26001, 26002, 26003, 26004, 26005, 26006, 26007, 26008, 26009, 26010, 26011, 26012
 26013, 26014, 26015, 26016, 26017, 26018, 26019, 26020, 26021, 26022, 26023, 26024, 26025, 26026, 26027, 26028
 26029, 26030, 26031, 26032, 26033, 26034, 26035, 26036, 26037, 26038, 26039
*Elset, elset=ROT-PADIN
   809,   810,   811,   812,   813,   814,   815,   816,   817,   818,   819,   820,   821,   822,   823,   824
   825,   826,   827,   828,   829,  8896,  8897,  8898,  8899,  8900,  8901,  8902,  8903,  8904,  8905,  8906
  8907,  8908,  8909,  8910,  8911,  8912,  8913,  8914,  8915,  8916, 12884, 12885, 12886, 12887, 12888, 12889
 12890, 12891, 12892, 12893, 12894, 12895, 12896, 12897, 12898, 12899, 12900, 12901, 12902, 12903, 12904, 12905
 12906, 12907, 12908, 12909, 12910, 12911, 12912, 12913, 12914, 12915, 12916, 12917, 12918, 12919, 12920, 12921
 12922, 12923, 12924, 12925, 12926, 12927, 12928, 12929, 12930, 12931, 12932, 12933, 12934, 12935, 12936, 12937
 12938, 12939, 12940, 12941, 12942, 12943, 12944, 12945, 12946, 12947, 12948, 12949, 12950, 12951, 12952, 12953
 12954, 12955, 12956, 12957, 12958, 12959, 12960, 12961, 12962, 12963, 12964, 12965, 12966, 12967, 12968, 12969
 12970, 12971, 12972, 12973, 12974, 12975, 12976, 12977, 12978, 12979, 12980, 12981, 12982, 12983, 12984, 12986
 12987, 12990, 12991, 12996, 12997, 12998, 12999, 13000, 13001, 13002, 13003, 13004, 13005, 13006, 13009, 13011
 13012, 13013, 13014, 13018, 13019, 13020, 13032, 13033, 13035, 13036, 13037, 13039, 13040, 13041, 13042, 13043
 13044, 13045, 13046, 13047, 13048, 13049, 13050, 13051, 13052, 13053, 13054, 13055, 13056, 13057, 13058, 13059
 13060, 13061, 13062, 13063, 13064, 13065, 13066, 13067, 13068, 13069, 13070, 13071, 13072, 13073, 13074, 13075
 13076, 13077, 13078, 13079, 13080, 13081, 13082, 13083, 13084, 13085, 13086, 13087, 13088, 13089, 13090, 13091
 13092, 13093, 13094, 13095, 13096, 13097, 13098, 13099, 13100, 13101, 13102, 13103, 13104, 13105, 13106, 13107
 13108, 13109, 13110, 13111, 13112, 13113, 13114, 13115, 13116, 13117, 13118, 13119, 13120, 13121, 13122, 13123
 13124, 13125, 13126, 13150, 13151, 13155, 13156, 13157, 13158, 13159, 13160, 13177, 13178, 13179, 13182, 13183
 13184, 13185, 13186, 13187, 13188, 13189, 13193, 13210, 13212, 13213, 13214, 13215, 13216, 13217, 13218, 13219
 13220, 13221, 13222, 13223, 13224, 13225, 13226, 13227, 13228, 13229, 13230, 13231, 13232, 13233, 13234, 13235
 13236, 13237, 13238, 13239, 13240, 13241, 13242, 13243, 13244, 13245, 13246, 13247, 13248, 13249, 13250, 13251
** ... 46 like lines cut
*Elset, elset=ROT-PADOUT
     4,    26,    48,    70,    92,   114,   136,   158,   180,   202,   224,   246,   268,   290,   312,   334
   367,   384,   395,   595,   613,   624,   635,   720,   721,   722,   723,   724,   725,   726,   727,   728
   729,   730,   731,   732,   733,   734,   735,   736,   737,   738,   739,   740,   741,   742,   743,   744
   745,   746,   747,   748,   749,   750,   751,   752,   753,   754,   755,   756,   757,   758,   759,   760
   761,   762,   763,   764,   765,  8962,  8963,  8964,  8965,  8966,  8967,  8968,  8969,  8970,  8971,  8972
  8973,  8974,  8975,  8976,  8977,  8978,  8979,  8980,  8981,  8982,  8983,  8984,  8985,  8986,  8987,  8988
  8989,  8990,  8991,  8992,  8993,  8994,  8995,  8996,  8997,  8998,  8999,  9000,  9001,  9002,  9003,  9004
  9005,  9090,  9101,  9112,  9130,  9341,  9358,  9391,  9413,  9435,  9457,  9479,  9501,  9523,  9545,  9567
  9589,  9611,  9633,  9655,  9677,  9699,  9721, 11128, 11129, 11130, 11131, 11132, 11133, 11134, 11135, 11136
 11137, 11138, 11139, 11140, 11141, 11142, 11143, 11144, 11145, 11146, 11147, 11148, 11149, 11150, 11151, 11152
 11153, 11154, 11155, 11156, 11157, 11158, 11159, 11160, 11161, 11162, 11163, 11164, 11165, 11166, 11167, 11168
 11169, 11170, 11171, 11172, 11173, 11174, 11175, 11176, 11177, 11178, 11179, 11180, 11181, 11182, 11183, 11184
 11185, 11186, 11187, 11188, 11189, 11190, 11191, 11192, 11193, 11194, 11195, 11196, 11197, 11198, 11199, 11200
 11201, 11202, 11203, 11204, 11205, 11206, 11207, 11208, 11209, 11210, 11211, 11212, 11213, 11214, 11215, 11216
 11217, 11218, 11219, 11220, 11221, 11222, 11223, 11224, 11225, 11226, 11227, 11228, 11229, 11230, 11231, 11232
 11233, 11234, 11235, 11236, 11237, 11238, 11239, 11240, 11241, 11242, 11243, 11244, 11245, 11246, 11247, 11248
 11249, 11250, 11251, 11252, 11253, 11254, 11255, 11256, 11257, 11258, 11259, 11260, 11261, 11262, 11263, 11264
 11265, 11266, 11267, 11268, 11269, 11270, 11271, 11272, 11273, 11274, 11275, 11276, 11277, 11278, 11279, 11280
 11281, 11282, 11283, 11284, 11285, 11286, 11287, 11288, 11289, 11290, 11291, 11292, 11293, 11294, 11295, 11296
 11297, 11298, 11299, 11300, 11301, 11302, 11303, 11304, 11305, 11306, 11307, 11308, 11309, 11310, 11311, 11312
** ... 60 like lines cut
*Elset, elset=ROTOR-FEM
     1,     2,     3,     4,     5,     6,     7,     8,     9,    10,    11,    12,    13,    14,    15,    16
    17,    18,    19,    20,    21,    22,    23,    24,    25,    26,    27,    28,    29,    30,    31,    32
    33,    34,    35,    36,    37,    38,    39,    40,    41,    42,    43,    44,    45,    46,    47,    48
    49,    50,    51,    52,    53,    54,    55,    56,    57,    58,    59,    60,    61,    62,    63,    64
    65,    66,    67,    68,    69,    70,    71,    72,    73,    74,    75,    76,    77,    78,    79,    80
    81,    82,    83,    84,    85,    86,    87,    88,    89,    90,    91,    92,    93,    94,    95,    96
    97,    98,    99,   100,   101,   102,   103,   104,   105,   106,   107,   108,   109,   110,   111,   112
   113,   114,   115,   116,   117,   118,   119,   120,   121,   122,   123,   124,   125,   126,   127,   128
   129,   130,   131,   132,   133,   134,   135,   136,   137,   138,   139,   140,   141,   142,   143,   144
   145,   146,   147,   148,   149,   150,   151,   152,   153,   154,   155,   156,   157,   158,   159,   160
   161,   162,   163,   164,   165,   166,   167,   168,   169,   170,   171,   172,   173,   174,   175,   176
   177,   178,   179,   180,   181,   182,   183,   184,   185,   186,   187,   188,   189,   190,   191,   192
   193,   194,   195,   196,   197,   198,   199,   200,   201,   202,   203,   204,   205,   206,   207,   208
   209,   210,   211,   212,   213,   214,   215,   216,   217,   218,   219,   220,   221,   222,   223,   224
   225,   226,   227,   228,   229,   230,   231,   232,   233,   234,   235,   236,   237,   238,   239,   240
   241,   242,   243,   244,   245,   246,   247,   248,   249,   250,   251,   252,   253,   254,   255,   256
   257,   258,   259,   260,   261,   262,   263,   264,   265,   266,   267,   268,   269,   270,   271,   272
   273,   274,   275,   276,   277,   278,   279,   280,   281,   282,   283,   284,   285,   286,   287,   288
   289,   290,   291,   292,   293,   294,   295,   296,   297,   298,   299,   300,   301,   302,   303,   304
   305,   306,   307,   308,   309,   310,   311,   312,   313,   314,   315,   316,   317,   318,   319,   320
** ... 1050 like lines cut
** Section: Section-ROTOR-FEM
*Solid Section, elset=ROTOR-FEM, material=ROT-MAT
1.,
** Section: Section-BACK-PLATE-SOLID-INNER
*Solid Section, elset=BACK-PLATE-SOLID-INNER, material=BACK-PLT-MAT
1.,
** Section: Section-OUTER-BACKPLATE-FEM
*Solid Section, elset=OUTER-BACKPLATE-FEM, material=BACK-PLT-MAT
1.,
** Section: Section-INSULATOR-INNER
*Solid Section, elset=INSULATOR-INNER, material=INSULATOR-MAT
1.,
** Section: Section-INSULATOR-OUTER
*Solid Section, elset=INSULATOR-OUTER, material=INSULATOR-MAT
1.,
*Orientation, name=Ori-2
          1.,           0.,           0.,           0.,           1.,           0.
1, 0.
** Section: Section-PAD-SOLID-INNER
*Solid Section, elset=PAD-SOLID-INNER, orientation=Ori-2, material=PAD-MAT
1.,
*Orientation, name=Ori-1
          1.,           0.,           0.,           0.,           1.,           0.
1, 0.
** Section: Section-OUTER-PAD-FEM
*Solid Section, elset=OUTER-PAD-FEM, orientation=Ori-1, material=PAD-MAT
1.,
*System
*Elset, elset=PADIN-SURF1_S2
 22483, 22484, 22485, 22486, 22489, 22492, 22493, 22494, 22495, 22496, 22497, 22498, 22499, 22500, 22501, 22502
 22503, 22504, 22505, 22506, 22507, 23901, 23938, 23939, 23940, 23941, 23942, 23943, 23944, 23945, 23951, 23953
 23955, 23962, 23964, 23967, 23968, 23969, 23970, 23971, 23972, 23973, 23974, 23975, 23976, 23977, 23978, 23980
 23981, 23988, 23989, 24016, 24019, 24020, 24021, 24022, 24023, 24024, 24025, 24026, 24027, 24028, 24029, 24030
 24031, 24032, 24033, 24034, 24035, 24036, 24037, 24038, 24039, 24040, 24041, 24043, 24044, 24045, 24046, 24047
 24048, 24049, 24050, 24051, 24052, 24053, 24054, 24055, 24056, 24057, 24058, 24059, 24060, 24061, 24062, 24063
 24064, 24065, 24066, 24067, 24068, 24069, 24070, 24071, 24072, 24073, 24074, 24075, 24076, 24077, 24078, 24079
 24080, 24081, 24082, 24083, 24084, 24085, 24086, 24087, 24088, 24089, 24090, 24091, 24092, 24093, 24094, 24095
 24096, 24097, 24098, 24099, 24101, 24102, 24103, 24104, 24105, 24106, 24107, 24108, 24109, 24110, 24111, 24112
 24113, 24114, 24115, 24116, 24117, 24118, 24119, 24120, 24121, 24122, 24123, 24124, 24125, 24126, 24127, 24128
 24129, 24130, 24131, 24132, 24133, 24134, 24135, 24136, 24137, 24138, 24139, 24140, 24141, 24142, 24143, 24144
 24145, 24146, 24147, 24148, 24149, 24150, 24151, 24152, 24153, 24154, 24155, 24156, 24157, 24158, 24159, 24160
 24161, 24162, 24163, 24164, 24165, 24166, 24167, 24168, 24169, 24170, 24171, 24172, 24173, 24174, 24175, 24176
 24177, 24178, 24179, 24180, 24181, 24182, 24183, 24184, 24185, 24186, 24187, 24188, 24189, 24190, 24191, 24192
 24193, 24194, 24195, 24196, 24197, 24198, 24199, 24200, 24201, 24202, 24203, 24204, 24205, 24206, 24207, 24208
 24209, 24210, 24211, 24212, 24213, 24214, 24215, 24216, 24217, 24218, 24219, 24220, 24221, 24222, 24223, 24224
 24225, 24226, 24227, 24228, 24229, 24230, 24231, 24232, 24233, 24234, 24235, 24236, 24237, 24238, 24239, 24240
 24241, 24242, 24243, 24244, 24245, 24246, 24247, 24248, 24249, 24250, 24251, 24252, 24253, 24254, 24255, 24256
 24257, 24258, 24259, 24260, 24261, 24262, 24263, 24264, 24265, 24266, 24267, 24268, 24269, 24270, 24271, 24272
 24273, 24274, 24275, 24276, 24277, 24278, 24279, 24280, 24281, 24282, 24283
*Surface, type=ELEMENT, name=PADIN-SURF1
PADIN-SURF1_S2, S2
*Elset, elset=PADIN-SURF2_S2
 22431, 22432, 22433, 22434, 22437, 22440, 22441, 22442, 22443, 22444, 22445, 22446, 22447, 22448, 22449, 22450
 22451, 22452, 22453, 22454, 22455, 23023, 23060, 23061, 23062, 23063, 23064, 23065, 23066, 23067, 23073, 23075
 23077, 23084, 23086, 23089, 23090, 23091, 23092, 23093, 23094, 23095, 23096, 23097, 23098, 23099, 23100, 23102
 23103, 23110, 23111, 23138, 23141, 23142, 23143, 23144, 23145, 23146, 23147, 23148, 23149, 23150, 23151, 23152
 23153, 23154, 23155, 23156, 23157, 23158, 23159, 23160, 23161, 23162, 23163, 23165, 23166, 23167, 23168, 23169
 23170, 23171, 23172, 23173, 23174, 23175, 23176, 23177, 23178, 23179, 23180, 23181, 23182, 23183, 23184, 23185
 23186, 23187, 23188, 23189, 23190, 23191, 23192, 23193, 23194, 23195, 23196, 23197, 23198, 23199, 23200, 23201
 23202, 23203, 23204, 23205, 23206, 23207, 23208, 23209, 23210, 23211, 23212, 23213, 23214, 23215, 23216, 23217
 23218, 23219, 23220, 23221, 23223, 23224, 23225, 23226, 23227, 23228, 23229, 23230, 23231, 23232, 23233, 23234
 23235, 23236, 23237, 23238, 23239, 23240, 23241, 23242, 23243, 23244, 23245, 23246, 23247, 23248, 23249, 23250
 23251, 23252, 23253, 23254, 23255, 23256, 23257, 23258, 23259, 23260, 23261, 23262, 23263, 23264, 23265, 23266
 23267, 23268, 23269, 23270, 23271, 23272, 23273, 23274, 23275, 23276, 23277, 23278, 23279, 23280, 23281, 23282
 23283, 23284, 23285, 23286, 23287, 23288, 23289, 23290, 23291, 23292, 23293, 23294, 23295, 23296, 23297, 23298
 23299, 23300, 23301, 23302, 23303, 23304, 23305, 23306, 23307, 23308, 23309, 23310, 23311, 23312, 23313, 23314
 23315, 23316, 23317, 23318, 23319, 23320, 23321, 23322, 23323, 23324, 23325, 23326, 23327, 23328, 23329, 23330
 23331, 23332, 23333, 23334, 23335, 23336, 23337, 23338, 23339, 23340, 23341, 23342, 23343, 23344, 23345, 23346
 23347, 23348, 23349, 23350, 23351, 23352, 23353, 23354, 23355, 23356, 23357, 23358, 23359, 23360, 23361, 23362
 23363, 23364, 23365, 23366, 23367, 23368, 23369, 23370, 23371, 23372, 23373, 23374, 23375, 23376, 23377, 23378
 23379, 23380, 23381, 23382, 23383, 23384, 23385, 23386, 23387, 23388, 23389, 23390, 23391, 23392, 23393, 23394
 23395, 23396, 23397, 23398, 23399, 23400, 23401, 23402, 23403, 23404, 23405
*Surface, type=ELEMENT, name=PADIN-SURF2
PADIN-SURF2_S2, S2
*Elset, elset=PADOUT-SURF1_S2
 22535, 22536, 22537, 22538, 22541, 22544, 22545, 22546, 22547, 22548, 22549, 22550, 22551, 22552, 22553, 22554
 22555, 22556, 22557, 22558, 22559, 24779, 24816, 24817, 24818, 24819, 24820, 24821, 24822, 24823, 24829, 24831
 24833, 24840, 24842, 24845, 24846, 24847, 24848, 24849, 24850, 24851, 24852, 24853, 24854, 24855, 24856, 24858
 24859, 24866, 24867, 24894, 24897, 24898, 24899, 24900, 24901, 24902, 24903, 24904, 24905, 24906, 24907, 24908
 24909, 24910, 24911, 24912, 24913, 24914, 24915, 24916, 24917, 24918, 24919, 24921, 24922, 24923, 24924, 24925
 24926, 24927, 24928, 24929, 24930, 24931, 24932, 24933, 24934, 24935, 24936, 24937, 24938, 24939, 24940, 24941
 24942, 24943, 24944, 24945, 24946, 24947, 24948, 24949, 24950, 24951, 24952, 24953, 24954, 24955, 24956, 24957
 24958, 24959, 24960, 24961, 24962, 24963, 24964, 24965, 24966, 24967, 24968, 24969, 24970, 24971, 24972, 24973
 24974, 24975, 24976, 24977, 24979, 24980, 24981, 24982, 24983, 24984, 24985, 24986, 24987, 24988, 24989, 24990
 24991, 24992, 24993, 24994, 24995, 24996, 24997, 24998, 24999, 25000, 25001, 25002, 25003, 25004, 25005, 25006
 25007, 25008, 25009, 25010, 25011, 25012, 25013, 25014, 25015, 25016, 25017, 25018, 25019, 25020, 25021, 25022
 25023, 25024, 25025, 25026, 25027, 25028, 25029, 25030, 25031, 25032, 25033, 25034, 25035, 25036, 25037, 25038
 25039, 25040, 25041, 25042, 25043, 25044, 25045, 25046, 25047, 25048, 25049, 25050, 25051, 25052, 25053, 25054
 25055, 25056, 25057, 25058, 25059, 25060, 25061, 25062, 25063, 25064, 25065, 25066, 25067, 25068, 25069, 25070
 25071, 25072, 25073, 25074, 25075, 25076, 25077, 25078, 25079, 25080, 25081, 25082, 25083, 25084, 25085, 25086
 25087, 25088, 25089, 25090, 25091, 25092, 25093, 25094, 25095, 25096, 25097, 25098, 25099, 25100, 25101, 25102
 25103, 25104, 25105, 25106, 25107, 25108, 25109, 25110, 25111, 25112, 25113, 25114, 25115, 25116, 25117, 25118
 25119, 25120, 25121, 25122, 25123, 25124, 25125, 25126, 25127, 25128, 25129, 25130, 25131, 25132, 25133, 25134
 25135, 25136, 25137, 25138, 25139, 25140, 25141, 25142, 25143, 25144, 25145, 25146, 25147, 25148, 25149, 25150
 25151, 25152, 25153, 25154, 25155, 25156, 25157, 25158, 25159, 25160, 25161
*Surface, type=ELEMENT, name=PADOUT-SURF1
PADOUT-SURF1_S2, S2
*Elset, elset=PADOUT-SURF2_S2
 22587, 22588, 22589, 22590, 22593, 22596, 22597, 22598, 22599, 22600, 22601, 22602, 22603, 22604, 22605, 22606
 22607, 22608, 22609, 22610, 22611, 25657, 25694, 25695, 25696, 25697, 25698, 25699, 25700, 25701, 25707, 25709
 25711, 25718, 25720, 25723, 25724, 25725, 25726, 25727, 25728, 25729, 25730, 25731, 25732, 25733, 25734, 25736
 25737, 25744, 25745, 25772, 25775, 25776, 25777, 25778, 25779, 25780, 25781, 25782, 25783, 25784, 25785, 25786
 25787, 25788, 25789, 25790, 25791, 25792, 25793, 25794, 25795, 25796, 25797, 25799, 25800, 25801, 25802, 25803
 25804, 25805, 25806, 25807, 25808, 25809, 25810, 25811, 25812, 25813, 25814, 25815, 25816, 25817, 25818, 25819
 25820, 25821, 25822, 25823, 25824, 25825, 25826, 25827, 25828, 25829, 25830, 25831, 25832, 25833, 25834, 25835
 25836, 25837, 25838, 25839, 25840, 25841, 25842, 25843, 25844, 25845, 25846, 25847, 25848, 25849, 25850, 25851
 25852, 25853, 25854, 25855, 25857, 25858, 25859, 25860, 25861, 25862, 25863, 25864, 25865, 25866, 25867, 25868
 25869, 25870, 25871, 25872, 25873, 25874, 25875, 25876, 25877, 25878, 25879, 25880, 25881, 25882, 25883, 25884
 25885, 25886, 25887, 25888, 25889, 25890, 25891, 25892, 25893, 25894, 25895, 25896, 25897, 25898, 25899, 25900
 25901, 25902, 25903, 25904, 25905, 25906, 25907, 25908, 25909, 25910, 25911, 25912, 25913, 25914, 25915, 25916
 25917, 25918, 25919, 25920, 25921, 25922, 25923, 25924, 25925, 25926, 25927, 25928, 25929, 25930, 25931, 25932
 25933, 25934, 25935, 25936, 25937, 25938, 25939, 25940, 25941, 25942, 25943, 25944, 25945, 25946, 25947, 25948
 25949, 25950, 25951, 25952, 25953, 25954, 25955, 25956, 25957, 25958, 25959, 25960, 25961, 25962, 25963, 25964
 25965, 25966, 25967, 25968, 25969, 25970, 25971, 25972, 25973, 25974, 25975, 25976, 25977, 25978, 25979, 25980
 25981, 25982, 25983, 25984, 25985, 25986, 25987, 25988, 25989, 25990, 25991, 25992, 25993, 25994, 25995, 25996
 25997, 25998, 25999, 26000, 26001, 26002, 26003, 26004, 26005, 26006, 26007, 26008, 26009, 26010, 26011, 26012
 26013, 26014, 26015, 26016, 26017, 26018, 26019, 26020, 26021, 26022, 26023, 26024, 26025, 26026, 26027, 26028
 26029, 26030, 26031, 26032, 26033, 26034, 26035, 26036, 26037, 26038, 26039
*Surface, type=ELEMENT, name=PADOUT-SURF2
PADOUT-SURF2_S2, S2
*Elset, elset=ROT-PADIN-SURF_S2
   809,   810,   811,   812,   813,   814,   815,   816,   817,   818,   819,   820,   821,   822,   823,   824
   825,   826,   827,   828,   829,  8896,  8897,  8898,  8899,  8900,  8901,  8902,  8903,  8904,  8905,  8906
  8907,  8908,  8909,  8910,  8911,  8912,  8913,  8914,  8915,  8916, 12884, 12885, 12886, 12887, 12888, 12889
 12890, 12891, 12892, 12893, 12894, 12895, 12896, 12897, 12898, 12899, 12900, 12901, 12902, 12903, 12904, 12905
 12906, 12907, 12908, 12909, 12910, 12911, 12912, 12913, 12914, 12915, 12916, 12917, 12918, 12919, 12920, 12921
 12922, 12923, 12924, 12925, 12926, 12927, 12928, 12929, 12930, 12931, 12932, 12933, 12934, 12935, 12936, 12937
 12938, 12939, 12940, 12941, 12942, 12943, 12944, 12945, 12946, 12947, 12948, 12949, 12950, 12951, 12952, 12953
 12954, 12955, 12956, 12957, 12958, 12959, 12960, 12961, 12962, 12963, 12964, 12965, 12966, 12967, 12968, 12969
 12970, 12971, 12972, 12973, 12974, 12975, 12976, 12977, 12978, 12979, 12980, 12981, 12982, 12983, 12984, 12986
 12987, 12990, 12991, 12996, 12997, 12998, 12999, 13000, 13001, 13002, 13003, 13004, 13005, 13006, 13009, 13011
 13012, 13013, 13014, 13018, 13019, 13020, 13032, 13033, 13035, 13036, 13037, 13039, 13040, 13041, 13042, 13043
 13044, 13045, 13046, 13047, 13048, 13049, 13050, 13051, 13052, 13053, 13054, 13055, 13056, 13057, 13058, 13059
 13060, 13061, 13062, 13063, 13064, 13065, 13066, 13067, 13068, 13069, 13070, 13071, 13072, 13073, 13074, 13075
 13076, 13077, 13078, 13079, 13080, 13081, 13082, 13083, 13084, 13085, 13086, 13087, 13088, 13089, 13090, 13091
 13092, 13093, 13094, 13095, 13096, 13097, 13098, 13099, 13100, 13101, 13102, 13103, 13104, 13105, 13106, 13107
 13108, 13109, 13110, 13111, 13112, 13113, 13114, 13115, 13116, 13117, 13118, 13119, 13120, 13121, 13122, 13123
 13124, 13125, 13126, 13150, 13151, 13155, 13156, 13157, 13158, 13159, 13160, 13177, 13178, 13179, 13182, 13183
 13184, 13185, 13186, 13187, 13188, 13189, 13193, 13210, 13212, 13213, 13214, 13215, 13216, 13217, 13218, 13219
 13220, 13221, 13222, 13223, 13224, 13225, 13226, 13227, 13228, 13229, 13230, 13231, 13232, 13233, 13234, 13235
 13236, 13237, 13238, 13239, 13240, 13241, 13242, 13243, 13244, 13245, 13246, 13247, 13248, 13249, 13250, 13251
** ... 46 like lines cut
*Surface, type=ELEMENT, name=ROT-PADIN-SURF
ROT-PADIN-SURF_S2, S2
*Elset, elset=ROT-PADOUT-SURF_S5
   4,  26,  48,  70,  92, 114, 136, 158, 180, 202, 224, 246, 268, 290, 312, 334
 367, 384, 395, 595, 613, 624, 635
*Elset, elset=ROT-PADOUT-SURF_S2
   720,   721,   722,   723,   724,   725,   726,   727,   728,   729,   730,   731,   732,   733,   734,   735
   736,   737,   738,   739,   740,   741,   742,   743,   744,   745,   746,   747,   748,   749,   750,   751
   752,   753,   754,   755,   756,   757,   758,   759,   760,   761,   762,   763,   764,   765,  8962,  8963
  8964,  8965,  8966,  8967,  8968,  8969,  8970,  8971,  8972,  8973,  8974,  8975,  8976,  8977,  8978,  8979
  8980,  8981,  8982,  8983,  8984,  8985,  8986,  8987,  8988,  8989,  8990,  8991,  8992,  8993,  8994,  8995
  8996,  8997,  8998,  8999,  9000,  9001,  9002,  9003,  9004,  9005, 11128, 11129, 11130, 11131, 11132, 11133
 11134, 11135, 11136, 11137, 11138, 11139, 11140, 11141, 11142, 11143, 11144, 11145, 11146, 11147, 11148, 11149
 11150, 11151, 11152, 11153, 11154, 11155, 11156, 11157, 11158, 11159, 11160, 11161, 11162, 11163, 11164, 11165
 11166, 11167, 11168, 11169, 11170, 11171, 11172, 11173, 11174, 11175, 11176, 11177, 11178, 11179, 11180, 11181
 11182, 11183, 11184, 11185, 11186, 11187, 11188, 11189, 11190, 11191, 11192, 11193, 11194, 11195, 11196, 11197
 11198, 11199, 11200, 11201, 11202, 11203, 11204, 11205, 11206, 11207, 11208, 11209, 11210, 11211, 11212, 11213
 11214, 11215, 11216, 11217, 11218, 11219, 11220, 11221, 11222, 11223, 11224, 11225, 11226, 11227, 11228, 11229
 11230, 11231, 11232, 11233, 11234, 11235, 11236, 11237, 11238, 11239, 11240, 11241, 11242, 11243, 11244, 11245
 11246, 11247, 11248, 11249, 11250, 11251, 11252, 11253, 11254, 11255, 11256, 11257, 11258, 11259, 11260, 11261
 11262, 11263, 11264, 11265, 11266, 11267, 11268, 11269, 11270, 11271, 11272, 11273, 11274, 11275, 11276, 11277
 11278, 11279, 11280, 11281, 11282, 11283, 11284, 11285, 11286, 11287, 11288, 11289, 11290, 11291, 11292, 11293
 11294, 11295, 11296, 11297, 11298, 11299, 11300, 11301, 11302, 11303, 11304, 11305, 11306, 11307, 11308, 11309
 11310, 11311, 11312, 11313, 11314, 11315, 11316, 11317, 11318, 11319, 11320, 11321, 11322, 11323, 11324, 11325
 11326, 11327, 11328, 11329, 11330, 11331, 11332, 11333, 11334, 11335, 11336, 11337, 11338, 11339, 11340, 11341
 11342, 11343, 11344, 11345, 11346, 11347, 11348, 11349, 11350, 11351, 11352, 11353, 11354, 11355, 11356, 11357
** ... 57 like lines cut
*Elset, elset=ROT-PADOUT-SURF_S4
 9090, 9101, 9112, 9130, 9341, 9358, 9391, 9413, 9435, 9457, 9479, 9501, 9523, 9545, 9567, 9589
 9611, 9633, 9655, 9677, 9699, 9721
*Surface, type=ELEMENT, name=ROT-PADOUT-SURF
ROT-PADOUT-SURF_S5, S5
ROT-PADOUT-SURF_S2, S2
ROT-PADOUT-SURF_S4, S4
** 
** MATERIALS
** 
*Material, name=BACK-PLT-MAT
*Density
 7.82e-06,
*Elastic
 2.07e+08, 0.28
*Material, name=INSULATOR-MAT
*Density
 7.82e-06,
*Elastic
 2.07e+08, 0.29
*Material, name=PAD-MAT
*Density
 2.51e-06,
*Elastic, type=ANISOTROPIC
 5.94e+06,  760000., 5.94e+06,  980000.,  980000., 2.27e+06,       0.,       0.
       0., 2.59e+06,       0.,       0.,       0.,       0., 1.18e+06,       0.
       0.,       0.,       0.,       0., 1.18e+06
*Material, name=ROT-MAT
*Density
 7.2e-06,
*Elastic
 1.25e+08, 0.24
** 
*CONTACT PAIR,SMALL SLIDING,INTERACTION=PAD_ROTOR
 Padin-surf1,Rot-Padin-surf
*SURFACE INTERACTION,NAME=PAD_ROTOR
*CONTACT PAIR,SMALL SLIDING,INTERACTION=PAD_ROTOR
 Padin-surf2,Rot-Padin-surf
*CONTACT PAIR,SMALL SLIDING,INTERACTION=PAD_ROTOR
 Padout-surf1,Rot-Padout-surf
*CONTACT PAIR,SMALL SLIDING,INTERACTION=PAD_ROTOR
 Padout-surf2,Rot-Padout-surf
***************
*STEP, INC =  1000, NLGEOM, NAME=PRESSURE
*STATIC
 1.0      ,1.0 
*BOUNDARY, OP=NEW
 Outer-ear-const,1,2,0.
 Inner-ear-const,1,2,0.
 Rotor-constr,1,3,0.
*DLOAD, OP=NEW
 Insulator-load1, P1, 0.5E+03
 Insulator-load2, P2, 0.5E+03  
*OUTPUT, FIELD, FREQUENCY=4
*NODE OUTPUT
 U,
*ELEMENT OUTPUT
 S,E
*END STEP
***************
***************
*STEP, NAME=FREQ
 Natural frquency extraction
*FREQUENCY, eigensolver=lanczos, acoustic coupling=off
 15,
*OUTPUT, FIELD
*NODE OUTPUT
 U,
*END STEP
***************
***************
