*Heading
** Job name: torque-link-assembly-contctrl Model name: torque-link-assembly
** Generated by: Abaqus/CAE 6.12-1
** *Preprint, echo=NO, model=NO, history=NO, contact=NO
**
** PARTS
**
*Part, name=LINK
*Node
      1,  -422.191925,  -113.125984,       -162.5
      2,  -422.191925,  -113.125984,        -225.
      3,  -401.177094,  -191.554413,        -225.
      4,  -401.177094,  -191.554413,       -162.5
      5,   -453.88855,  -121.619072,       -162.5
      6,   -453.88855,  -121.619072,        -225.
      7,   -489.80957,  -183.836105,       -162.5
      8,  -479.948578,  -220.637878,       -162.5
      9,   -489.80957,  -183.836105,        -225.
     10,  -479.948578,  -220.637878,        -225.
     11,  -443.206757,  -34.6975517,       -162.5
     12,  -443.206757,  -34.6975517,        -225.
     13,  -525.966614,  -48.8962708,       -162.5
     14,  -516.105591,  -85.6980438,       -162.5
     15,  -525.966614,  -48.8962708,        -225.
     16,  -516.105591,  -85.6980438,        -225.
     17,   -453.88855,  -121.619072,         225.
     18,   -453.88855,  -121.619072,        162.5
     19,   -489.80957,  -183.836105,        162.5
     20,   -489.80957,  -183.836105,         225.
** ... 6169 like lines cut
*Element, type=C3D8R
   1, 1080,  101, 1075, 3841,   97,    1,  100, 1071
   2, 3841, 1075, 1076, 3838, 1071,  100,   99, 1072
   3, 1081,  102, 1077, 3837, 1080,  101, 1075, 3841
   4, 3837, 1077, 1078, 3836, 3841, 1075, 1076, 3838
   5, 1084, 1085, 3845, 3843,  104,  103, 1074, 1073
   6, 1085,  106, 1082, 3845,  103,    2,   98, 1074
   7, 3843, 3845, 3841, 3838, 1073, 1074, 1071, 1072
   8, 3845, 1082, 1080, 3841, 1074,   98,   97, 1071
   9, 1086, 1087, 3842, 3839, 1084, 1085, 3845, 3843
  10, 1087,  105, 1083, 3842, 1085,  106, 1082, 3845
  11, 3839, 3842, 3837, 3836, 3843, 3845, 3841, 3838
  12, 3842, 1083, 1081, 3837, 3845, 1082, 1080, 3841
  13, 1089, 1090, 3843, 3838,  108,  107, 1073, 1072
  14, 1090,  109, 1084, 3843,  107,    3,  104, 1073
  15, 1091, 1092, 3839, 3836, 1089, 1090, 3843, 3838
  16, 1092,  110, 1086, 3839, 1090,  109, 1084, 3843
  17, 1076,  112, 1089, 3838,   99,    4,  108, 1072
  18, 1078,  113, 1091, 3836, 1076,  112, 1089, 3838
  19, 1095,  117, 1077, 3837,  115,    5,  102, 1081
  20, 1096,  118, 1078, 3836, 1095,  117, 1077, 3837
** ... 2602 like lines cut
*Element, type=C3D8
2353, 2615, 2616, 4988, 4897,  712,  713, 2546, 2545
2354, 2616, 2617, 4989, 4988,  713,  714, 2547, 2546
2355, 2617,  720, 2565, 4989,  714,   79,  715, 2547
2356, 4897, 4988, 4990, 4898, 2545, 2546, 2549, 2548
2357, 4988, 4989, 4991, 4990, 2546, 2547, 2550, 2549
2358, 4989, 2565, 2566, 4991, 2547,  715,  716, 2550
2359, 4898, 4990, 4915, 4885, 2548, 2549, 2552, 2551
2360, 4990, 4991, 4916, 4915, 2549, 2550, 2553, 2552
2361, 4991, 2566, 2567, 4916, 2550,  716,  717, 2553
2362, 2618, 2619, 4992, 4899, 2615, 2616, 4988, 4897
2363, 2619, 2620, 4993, 4992, 2616, 2617, 4989, 4988
2364, 2620,  721, 2568, 4993, 2617,  720, 2565, 4989
2365, 4899, 4992, 4994, 4900, 4897, 4988, 4990, 4898
2366, 4992, 4993, 4995, 4994, 4988, 4989, 4991, 4990
2367, 4993, 2568, 2569, 4995, 4989, 2565, 2566, 4991
2368, 4900, 4994, 4917, 4884, 4898, 4990, 4915, 4885
2369, 4994, 4995, 4918, 4917, 4990, 4991, 4916, 4915
2370, 4995, 2569, 2570, 4918, 4991, 2566, 2567, 4916
2371, 2621, 2622, 4996, 4901, 2618, 2619, 4992, 4899
2372, 2622, 2623, 4997, 4996, 2619, 2620, 4993, 4992
** ... 1936 like lines cut
*Nset, nset=LINK, generate
    1,  6189,     1
*Elset, elset=LINK, generate
    1,  4578,     1
*Elset, elset=_TO-COUPLING_S1, internal
 2773, 2774, 2775, 2776, 2777, 2778, 2779, 2780, 2781, 2782, 2783, 2784, 3937, 3938, 3939, 3940
 3941, 3942, 3943, 3944, 3945, 3946, 3947, 3948
*Elset, elset=_TO-COUPLING_S4, internal
   21,   22,   23,   24,   55,   56,   63,   64,  133,  134,  135,  136, 2324, 2326, 2328, 2330
 2332, 2334, 2336, 2338, 2340, 2342, 2344, 2346, 2348, 2350, 2352
*Elset, elset=_TO-COUPLING_S3, internal
  19,  20,  25,  26,  57,  58,  59,  60,  69,  70,  71,  72, 137, 138
*Elset, elset=_TO-COUPLING_S2, internal
  29,  30,  31,  32,  73,  74,  75,  76,  77,  78,  79,  80,  81,  82,  83,  84
 139, 140, 141, 142, 143, 144
*Elset, elset=_TO-COUPLING_S6, internal, generate
 4357,  4379,     2
*Elset, elset=_TO-PIN_S1, internal
 3241, 3242, 3243, 3244, 3245, 3246, 3247, 3248, 3249, 3250, 3251, 3252, 3253, 3254, 3255, 3256
 3257, 3258, 3259, 3260, 3261, 3262, 3263, 3264, 3265, 3266, 3267, 3268, 3269, 3270, 3271, 3272
 3273, 3274, 3275, 3276, 3277, 3278, 3279, 3280, 3281, 3282, 3283, 3284, 3285, 3286, 3287, 3288
 3289, 3290, 3291, 3292, 3293, 3294, 3295, 3296, 3297, 3298, 3299, 3300, 3301, 3302, 3303, 3304
 3305, 3306, 3307, 3308, 3309, 3310, 3311, 3312, 3313, 3314, 3315, 3316, 3317, 3318, 3319, 3320
 3321, 3322, 3323, 3324, 3325, 3326, 3327, 3328, 3329, 3330, 3331, 3332, 3333, 3334, 3335, 3336
 3337, 3338, 3339, 3340, 3341, 3342, 3343, 3344, 3345, 3346, 3347, 3348, 3349, 3350, 3351, 3352
 3353, 3354, 3811, 3812, 3813, 3814, 3815, 3816, 3817, 3818, 3819, 3820, 3821, 3822, 3823, 3824
 3825, 3826, 3827, 3828, 3829, 3830, 3831, 3832, 3833, 3834, 3835, 3836, 3837, 3838, 3839, 3840
 3841, 3842, 3843, 3844, 3845, 3846, 3847, 3848, 3849, 3850, 3851, 3852, 3853, 3854, 3855, 3856
 3857, 3858, 3859, 3860, 3861, 3862, 3863, 3864, 3865, 3866, 3867, 3868, 3869, 3870, 3871, 3872
 3873, 3874, 3875, 3876, 3877, 3878, 3879, 3880, 3881, 3882, 3883, 3884, 3885, 3886, 3887, 3888
 3889, 3890, 3891, 3892, 3893, 3894, 3895, 3896, 3897, 3898, 3899, 3900, 3901, 3902, 3903, 3904
 3905, 3906, 3907, 3908, 3909, 3910, 3911, 3912, 3913, 3914, 3915, 3916, 3917, 3918, 3919, 3920
 3921, 3922, 3923, 3924
*Elset, elset=_TO-PIN_S6, internal, generate
 3355,  3919,     6
*Elset, elset=_TO-PIN_S4, internal
 2355, 2358, 2361, 2364, 2367, 2370, 2373, 2376, 2379, 2382, 2385, 2388, 2391, 2394, 2397, 2400
 2403, 2406, 2409, 2412, 2415, 2418, 2421, 2424, 2427, 2430, 2433, 2436, 2439, 2442, 2445, 2448
 2451, 2454, 2457, 2460, 2463, 2466, 2469, 2472, 2475, 2478, 2481, 2484, 2487, 2490, 2493, 2496
 2499, 2502, 2505, 2508, 2511, 2514, 2517, 2520, 2523, 2526, 2529, 2532, 2664, 2667, 2670, 2673
 2676, 2679, 2682, 2685, 2703, 2706, 2709, 2712, 2715, 2718, 2721, 2724, 2727, 2730, 2790, 2796
 2802, 2808, 2814, 2820, 2826, 2832, 2838, 2844, 2850, 2856, 2862, 2868, 2874, 2880, 2886, 2892
 2898, 2904, 2910, 2916, 2922, 2928, 2934, 2940, 2946, 2952, 2958, 2964, 2970, 2976, 2982, 2988
 2994, 3000, 3006, 3012, 3018, 3024, 3030, 3036, 3042, 3048, 3054, 3060, 3066, 3072, 3078, 3084
 3090, 3096, 3102, 3108, 3114, 3120, 3126, 3132, 3138, 3144, 3150, 3156, 3162, 3168, 3174, 3180
 3186, 3192, 3198, 3204, 3210, 3216, 3222, 3228, 3234, 3240, 3246, 3252, 3258, 3264, 3270, 3276
 3282, 3288, 3294, 3300, 3306, 3312, 3318, 3324, 3330, 3336, 3342, 3348, 3354, 3951, 3954, 3957
 3960, 3963, 3966, 3969, 3972, 3975, 3978, 3981, 3984, 3987, 3990, 3993, 3996, 3999, 4002, 4005
 4008, 4011, 4014, 4017, 4020, 4023, 4026, 4029, 4032, 4035, 4038, 4191, 4194, 4197, 4200, 4203
 4206, 4209, 4212, 4215, 4218, 4221, 4224, 4227, 4230, 4233, 4236, 4239, 4242, 4245, 4248
*Elset, elset=_TO-PIN_S3, internal
 2443, 2444, 2445, 2452, 2453, 2454, 2461, 2462, 2463, 2470, 2471, 2472, 2479, 2480, 2481, 2488
 2489, 2490, 2497, 2498, 2499, 2506, 2507, 2508, 2515, 2516, 2517, 2524, 2525, 2526, 2533, 2534
 2539, 2540, 2545, 2546, 2551, 2552, 2557, 2558, 2563, 2564, 2569, 2570, 2575, 2576, 2581, 2582
 2587, 2588, 3949, 3950, 3951, 3958, 3959, 3960, 3967, 3968, 3969, 3976, 3977, 3978, 3985, 3986
 3987, 3994, 3995, 3996, 4003, 4004, 4005, 4012, 4013, 4014, 4021, 4022, 4023, 4030, 4031, 4032
 4039, 4040, 4041, 4048, 4049, 4050, 4057, 4058, 4059, 4066, 4067, 4068, 4075, 4076, 4077, 4084
 4085, 4086, 4093, 4094, 4095, 4102, 4103, 4104, 4111, 4112, 4113, 4120, 4121, 4122, 4249, 4252
 4255, 4267, 4268, 4269, 4270, 4271, 4327, 4328, 4333, 4334, 4339, 4340, 4345, 4346, 4351, 4352
*Elset, elset=_TO-PIN_S2, internal
 2653, 2654, 2655, 2662, 2663, 2664, 4249, 4250, 4251, 4258, 4259, 4260
*Elset, elset=_TO-LINK_S6, internal, generate
 2785,  3349,     6
*Elset, elset=_TO-LINK_S2, internal
 2785, 2786, 2787, 2788, 2789, 2790, 2791, 2792, 2793, 2794, 2795, 2796, 2797, 2798, 2799, 2800
 2801, 2802, 2803, 2804, 2805, 2806, 2807, 2808, 2809, 2810, 2811, 2812, 2813, 2814, 2815, 2816
 2817, 2818, 2819, 2820, 2821, 2822, 2823, 2824, 2825, 2826, 2827, 2828, 2829, 2830, 2831, 2832
 2833, 2834, 2835, 2836, 2837, 2838, 2839, 2840, 2841, 2842, 2843, 2844, 2845, 2846, 2847, 2848
 2849, 2850, 2851, 2852, 2853, 2854, 2855, 2856, 2857, 2858, 2859, 2860, 2861, 2862, 2863, 2864
 2865, 2866, 2867, 2868, 2869, 2870, 2871, 2872, 2873, 2874, 2875, 2876, 2877, 2878, 2879, 2880
 2881, 2882, 2883, 2884, 2885, 2886, 2887, 2888, 2889, 2890, 2891, 2892, 2893, 2894, 2895, 2896
 2897, 2898, 3355, 3356, 3357, 3358, 3359, 3360, 3361, 3362, 3363, 3364, 3365, 3366, 3367, 3368
 3369, 3370, 3371, 3372, 3373, 3374, 3375, 3376, 3377, 3378, 3379, 3380, 3381, 3382, 3383, 3384
 3385, 3386, 3387, 3388, 3389, 3390, 3391, 3392, 3393, 3394, 3395, 3396, 3397, 3398, 3399, 3400
 3401, 3402, 3403, 3404, 3405, 3406, 3407, 3408, 3409, 3410, 3411, 3412, 3413, 3414, 3415, 3416
 3417, 3418, 3419, 3420, 3421, 3422, 3423, 3424, 3425, 3426, 3427, 3428, 3429, 3430, 3431, 3432
 3433, 3434, 3435, 3436, 3437, 3438, 3439, 3440, 3441, 3442, 3443, 3444, 3445, 3446, 3447, 3448
 3449, 3450, 3451, 3452, 3453, 3454, 3455, 3456, 3457, 3458, 3459, 3460, 3461, 3462, 3463, 3464
 3465, 3466, 3467, 3468
*Elset, elset=_TO-LINK_S4, internal
 2534, 2536, 2538, 2540, 2542, 2544, 2546, 2548, 2550, 2552, 2554, 2556, 2558, 2560, 2562, 2564
 2566, 2568, 2570, 2572, 2574, 2576, 2578, 2580, 2582, 2584, 2586, 2588, 2590, 2592, 2595, 2598
 2601, 2604, 2607, 2610, 2613, 2616, 2619, 2622, 2625, 2628, 2631, 2634, 2637, 2640, 2643, 2646
 2649, 2652, 2732, 2734, 2736, 2738, 2740, 2742, 2744, 2746, 2748, 2750, 2752, 2754, 2756, 2758
 2760, 3360, 3366, 3372, 3378, 3384, 3390, 3396, 3402, 3408, 3414, 3420, 3426, 3432, 3438, 3444
 3450, 3456, 3462, 3468, 3474, 3480, 3486, 3492, 3498, 3504, 3510, 3516, 3522, 3528, 3534, 3540
 3546, 3552, 3558, 3564, 3570, 3576, 3582, 3588, 3594, 3600, 3606, 3612, 3618, 3624, 3630, 3636
 3642, 3648, 3654, 3660, 3666, 3672, 3678, 3684, 3690, 3696, 3702, 3708, 3714, 3720, 3726, 3732
 3738, 3744, 3750, 3756, 3762, 3768, 3774, 3780, 3786, 3792, 3798, 3804, 3810, 3816, 3822, 3828
 3834, 3840, 3846, 3852, 3858, 3864, 3870, 3876, 3882, 3888, 3894, 3900, 3906, 3912, 3918, 3924
 4041, 4044, 4047, 4050, 4053, 4056, 4059, 4062, 4065, 4068, 4071, 4074, 4077, 4080, 4083, 4086
 4089, 4092, 4095, 4098, 4101, 4104, 4107, 4110, 4113, 4116, 4119, 4122, 4125, 4128, 4130, 4132
 4134, 4136, 4138, 4140, 4142, 4144, 4146, 4148, 4150, 4152, 4154, 4156, 4158, 4160, 4162, 4164
 4166, 4168, 4170, 4172, 4174, 4176, 4178, 4180, 4182, 4184, 4186, 4188, 4260, 4263, 4266, 4284
 4287, 4290, 4293, 4296, 4299, 4302, 4305, 4308, 4311, 4314, 4317, 4320, 4323, 4326, 4328, 4330
 4332, 4334, 4336, 4338, 4340, 4342, 4344, 4346, 4348, 4350, 4352, 4354, 4356
*Elset, elset=_TO-LINK_S3, internal
 2353, 2354, 2355, 2362, 2363, 2364, 2371, 2372, 2373, 2380, 2381, 2382, 2389, 2390, 2391, 2398
 2399, 2400, 2407, 2408, 2409, 2416, 2417, 2418, 2425, 2426, 2427, 2434, 2435, 2436, 2593, 2594
 2595, 2599, 2600, 2601, 2605, 2606, 2607, 2611, 2612, 2613, 2617, 2618, 2619, 2623, 2624, 2625
 2629, 2630, 2631, 2635, 2636, 2637, 2641, 2642, 2643, 2647, 2648, 2649, 2653, 2656, 2659, 2686
 2687, 2688, 2689, 2690, 2701, 2702, 2703, 2707, 2708, 2709, 2713, 2714, 2715, 2719, 2720, 2721
 2725, 2726, 2727, 2731, 2732, 2737, 2738, 2743, 2744, 2749, 2750, 2755, 2756, 4129, 4130, 4135
 4136, 4141, 4142, 4147, 4148, 4153, 4154, 4159, 4160, 4165, 4166, 4171, 4172, 4177, 4178, 4183
 4184, 4189, 4190, 4191, 4195, 4196, 4197, 4201, 4202, 4203, 4207, 4208, 4209, 4213, 4214, 4215
 4219, 4220, 4221, 4225, 4226, 4227, 4231, 4232, 4233, 4237, 4238, 4239, 4243, 4244, 4245, 4297
 4298, 4299, 4303, 4304, 4305, 4309, 4310, 4311, 4315, 4316, 4317, 4321, 4322, 4323
*Elset, elset=_TO-COUPLING_S1_1, internal
 2773, 2774, 2775, 2776, 2777, 2778, 2779, 2780, 2781, 2782, 2783, 2784, 3937, 3938, 3939, 3940
 3941, 3942, 3943, 3944, 3945, 3946, 3947, 3948
*Elset, elset=_TO-COUPLING_S4_1, internal
   21,   22,   23,   24,   55,   56,   63,   64,  133,  134,  135,  136, 2324, 2326, 2328, 2330
 2332, 2334, 2336, 2338, 2340, 2342, 2344, 2346, 2348, 2350, 2352
*Elset, elset=_TO-COUPLING_S2_1, internal
  29,  30,  31,  32,  73,  74,  75,  76,  77,  78,  79,  80,  81,  82,  83,  84
 139, 140, 141, 142, 143, 144
*Elset, elset=_TO-COUPLING_S6_1, internal, generate
 4357,  4379,     2
*Elset, elset=_TO-COUPLING_S3_1, internal
  19,  20,  25,  26,  57,  58,  59,  60,  69,  70,  71,  72, 137, 138
*Elset, elset=_TO-PIN_S1_1, internal
 3241, 3242, 3243, 3244, 3245, 3246, 3247, 3248, 3249, 3250, 3251, 3252, 3253, 3254, 3255, 3256
 3257, 3258, 3259, 3260, 3261, 3262, 3263, 3264, 3265, 3266, 3267, 3268, 3269, 3270, 3271, 3272
 3273, 3274, 3275, 3276, 3277, 3278, 3279, 3280, 3281, 3282, 3283, 3284, 3285, 3286, 3287, 3288
 3289, 3290, 3291, 3292, 3293, 3294, 3295, 3296, 3297, 3298, 3299, 3300, 3301, 3302, 3303, 3304
 3305, 3306, 3307, 3308, 3309, 3310, 3311, 3312, 3313, 3314, 3315, 3316, 3317, 3318, 3319, 3320
 3321, 3322, 3323, 3324, 3325, 3326, 3327, 3328, 3329, 3330, 3331, 3332, 3333, 3334, 3335, 3336
 3337, 3338, 3339, 3340, 3341, 3342, 3343, 3344, 3345, 3346, 3347, 3348, 3349, 3350, 3351, 3352
 3353, 3354, 3811, 3812, 3813, 3814, 3815, 3816, 3817, 3818, 3819, 3820, 3821, 3822, 3823, 3824
 3825, 3826, 3827, 3828, 3829, 3830, 3831, 3832, 3833, 3834, 3835, 3836, 3837, 3838, 3839, 3840
 3841, 3842, 3843, 3844, 3845, 3846, 3847, 3848, 3849, 3850, 3851, 3852, 3853, 3854, 3855, 3856
 3857, 3858, 3859, 3860, 3861, 3862, 3863, 3864, 3865, 3866, 3867, 3868, 3869, 3870, 3871, 3872
 3873, 3874, 3875, 3876, 3877, 3878, 3879, 3880, 3881, 3882, 3883, 3884, 3885, 3886, 3887, 3888
 3889, 3890, 3891, 3892, 3893, 3894, 3895, 3896, 3897, 3898, 3899, 3900, 3901, 3902, 3903, 3904
 3905, 3906, 3907, 3908, 3909, 3910, 3911, 3912, 3913, 3914, 3915, 3916, 3917, 3918, 3919, 3920
 3921, 3922, 3923, 3924
*Elset, elset=_TO-PIN_S6_1, internal, generate
 3355,  3919,     6
*Elset, elset=_TO-PIN_S4_1, internal
 2355, 2358, 2361, 2364, 2367, 2370, 2373, 2376, 2379, 2382, 2385, 2388, 2391, 2394, 2397, 2400
 2403, 2406, 2409, 2412, 2415, 2418, 2421, 2424, 2427, 2430, 2433, 2436, 2439, 2442, 2445, 2448
 2451, 2454, 2457, 2460, 2463, 2466, 2469, 2472, 2475, 2478, 2481, 2484, 2487, 2490, 2493, 2496
 2499, 2502, 2505, 2508, 2511, 2514, 2517, 2520, 2523, 2526, 2529, 2532, 2664, 2667, 2670, 2673
 2676, 2679, 2682, 2685, 2703, 2706, 2709, 2712, 2715, 2718, 2721, 2724, 2727, 2730, 2790, 2796
 2802, 2808, 2814, 2820, 2826, 2832, 2838, 2844, 2850, 2856, 2862, 2868, 2874, 2880, 2886, 2892
 2898, 2904, 2910, 2916, 2922, 2928, 2934, 2940, 2946, 2952, 2958, 2964, 2970, 2976, 2982, 2988
 2994, 3000, 3006, 3012, 3018, 3024, 3030, 3036, 3042, 3048, 3054, 3060, 3066, 3072, 3078, 3084
 3090, 3096, 3102, 3108, 3114, 3120, 3126, 3132, 3138, 3144, 3150, 3156, 3162, 3168, 3174, 3180
 3186, 3192, 3198, 3204, 3210, 3216, 3222, 3228, 3234, 3240, 3246, 3252, 3258, 3264, 3270, 3276
 3282, 3288, 3294, 3300, 3306, 3312, 3318, 3324, 3330, 3336, 3342, 3348, 3354, 3951, 3954, 3957
 3960, 3963, 3966, 3969, 3972, 3975, 3978, 3981, 3984, 3987, 3990, 3993, 3996, 3999, 4002, 4005
 4008, 4011, 4014, 4017, 4020, 4023, 4026, 4029, 4032, 4035, 4038, 4191, 4194, 4197, 4200, 4203
 4206, 4209, 4212, 4215, 4218, 4221, 4224, 4227, 4230, 4233, 4236, 4239, 4242, 4245, 4248
*Elset, elset=_TO-PIN_S2_1, internal
 2653, 2654, 2655, 2662, 2663, 2664, 4249, 4250, 4251, 4258, 4259, 4260
*Elset, elset=_TO-PIN_S3_1, internal
 2443, 2444, 2445, 2452, 2453, 2454, 2461, 2462, 2463, 2470, 2471, 2472, 2479, 2480, 2481, 2488
 2489, 2490, 2497, 2498, 2499, 2506, 2507, 2508, 2515, 2516, 2517, 2524, 2525, 2526, 2533, 2534
 2539, 2540, 2545, 2546, 2551, 2552, 2557, 2558, 2563, 2564, 2569, 2570, 2575, 2576, 2581, 2582
 2587, 2588, 3949, 3950, 3951, 3958, 3959, 3960, 3967, 3968, 3969, 3976, 3977, 3978, 3985, 3986
 3987, 3994, 3995, 3996, 4003, 4004, 4005, 4012, 4013, 4014, 4021, 4022, 4023, 4030, 4031, 4032
 4039, 4040, 4041, 4048, 4049, 4050, 4057, 4058, 4059, 4066, 4067, 4068, 4075, 4076, 4077, 4084
 4085, 4086, 4093, 4094, 4095, 4102, 4103, 4104, 4111, 4112, 4113, 4120, 4121, 4122, 4249, 4252
 4255, 4267, 4268, 4269, 4270, 4271, 4327, 4328, 4333, 4334, 4339, 4340, 4345, 4346, 4351, 4352
*Elset, elset=_TO-LINK_S6_1, internal, generate
 2785,  3349,     6
*Elset, elset=_TO-LINK_S2_1, internal
 2785, 2786, 2787, 2788, 2789, 2790, 2791, 2792, 2793, 2794, 2795, 2796, 2797, 2798, 2799, 2800
 2801, 2802, 2803, 2804, 2805, 2806, 2807, 2808, 2809, 2810, 2811, 2812, 2813, 2814, 2815, 2816
 2817, 2818, 2819, 2820, 2821, 2822, 2823, 2824, 2825, 2826, 2827, 2828, 2829, 2830, 2831, 2832
 2833, 2834, 2835, 2836, 2837, 2838, 2839, 2840, 2841, 2842, 2843, 2844, 2845, 2846, 2847, 2848
 2849, 2850, 2851, 2852, 2853, 2854, 2855, 2856, 2857, 2858, 2859, 2860, 2861, 2862, 2863, 2864
 2865, 2866, 2867, 2868, 2869, 2870, 2871, 2872, 2873, 2874, 2875, 2876, 2877, 2878, 2879, 2880
 2881, 2882, 2883, 2884, 2885, 2886, 2887, 2888, 2889, 2890, 2891, 2892, 2893, 2894, 2895, 2896
 2897, 2898, 3355, 3356, 3357, 3358, 3359, 3360, 3361, 3362, 3363, 3364, 3365, 3366, 3367, 3368
 3369, 3370, 3371, 3372, 3373, 3374, 3375, 3376, 3377, 3378, 3379, 3380, 3381, 3382, 3383, 3384
 3385, 3386, 3387, 3388, 3389, 3390, 3391, 3392, 3393, 3394, 3395, 3396, 3397, 3398, 3399, 3400
 3401, 3402, 3403, 3404, 3405, 3406, 3407, 3408, 3409, 3410, 3411, 3412, 3413, 3414, 3415, 3416
 3417, 3418, 3419, 3420, 3421, 3422, 3423, 3424, 3425, 3426, 3427, 3428, 3429, 3430, 3431, 3432
 3433, 3434, 3435, 3436, 3437, 3438, 3439, 3440, 3441, 3442, 3443, 3444, 3445, 3446, 3447, 3448
 3449, 3450, 3451, 3452, 3453, 3454, 3455, 3456, 3457, 3458, 3459, 3460, 3461, 3462, 3463, 3464
 3465, 3466, 3467, 3468
*Elset, elset=_TO-LINK_S4_1, internal
 2534, 2536, 2538, 2540, 2542, 2544, 2546, 2548, 2550, 2552, 2554, 2556, 2558, 2560, 2562, 2564
 2566, 2568, 2570, 2572, 2574, 2576, 2578, 2580, 2582, 2584, 2586, 2588, 2590, 2592, 2595, 2598
 2601, 2604, 2607, 2610, 2613, 2616, 2619, 2622, 2625, 2628, 2631, 2634, 2637, 2640, 2643, 2646
 2649, 2652, 2732, 2734, 2736, 2738, 2740, 2742, 2744, 2746, 2748, 2750, 2752, 2754, 2756, 2758
 2760, 3360, 3366, 3372, 3378, 3384, 3390, 3396, 3402, 3408, 3414, 3420, 3426, 3432, 3438, 3444
 3450, 3456, 3462, 3468, 3474, 3480, 3486, 3492, 3498, 3504, 3510, 3516, 3522, 3528, 3534, 3540
 3546, 3552, 3558, 3564, 3570, 3576, 3582, 3588, 3594, 3600, 3606, 3612, 3618, 3624, 3630, 3636
 3642, 3648, 3654, 3660, 3666, 3672, 3678, 3684, 3690, 3696, 3702, 3708, 3714, 3720, 3726, 3732
 3738, 3744, 3750, 3756, 3762, 3768, 3774, 3780, 3786, 3792, 3798, 3804, 3810, 3816, 3822, 3828
 3834, 3840, 3846, 3852, 3858, 3864, 3870, 3876, 3882, 3888, 3894, 3900, 3906, 3912, 3918, 3924
 4041, 4044, 4047, 4050, 4053, 4056, 4059, 4062, 4065, 4068, 4071, 4074, 4077, 4080, 4083, 4086
 4089, 4092, 4095, 4098, 4101, 4104, 4107, 4110, 4113, 4116, 4119, 4122, 4125, 4128, 4130, 4132
 4134, 4136, 4138, 4140, 4142, 4144, 4146, 4148, 4150, 4152, 4154, 4156, 4158, 4160, 4162, 4164
 4166, 4168, 4170, 4172, 4174, 4176, 4178, 4180, 4182, 4184, 4186, 4188, 4260, 4263, 4266, 4284
 4287, 4290, 4293, 4296, 4299, 4302, 4305, 4308, 4311, 4314, 4317, 4320, 4323, 4326, 4328, 4330
 4332, 4334, 4336, 4338, 4340, 4342, 4344, 4346, 4348, 4350, 4352, 4354, 4356
*Elset, elset=_TO-LINK_S3_1, internal
 2353, 2354, 2355, 2362, 2363, 2364, 2371, 2372, 2373, 2380, 2381, 2382, 2389, 2390, 2391, 2398
 2399, 2400, 2407, 2408, 2409, 2416, 2417, 2418, 2425, 2426, 2427, 2434, 2435, 2436, 2593, 2594
 2595, 2599, 2600, 2601, 2605, 2606, 2607, 2611, 2612, 2613, 2617, 2618, 2619, 2623, 2624, 2625
 2629, 2630, 2631, 2635, 2636, 2637, 2641, 2642, 2643, 2647, 2648, 2649, 2653, 2656, 2659, 2686
 2687, 2688, 2689, 2690, 2701, 2702, 2703, 2707, 2708, 2709, 2713, 2714, 2715, 2719, 2720, 2721
 2725, 2726, 2727, 2731, 2732, 2737, 2738, 2743, 2744, 2749, 2750, 2755, 2756, 4129, 4130, 4135
 4136, 4141, 4142, 4147, 4148, 4153, 4154, 4159, 4160, 4165, 4166, 4171, 4172, 4177, 4178, 4183
 4184, 4189, 4190, 4191, 4195, 4196, 4197, 4201, 4202, 4203, 4207, 4208, 4209, 4213, 4214, 4215
 4219, 4220, 4221, 4225, 4226, 4227, 4231, 4232, 4233, 4237, 4238, 4239, 4243, 4244, 4245, 4297
 4298, 4299, 4303, 4304, 4305, 4309, 4310, 4311, 4315, 4316, 4317, 4321, 4322, 4323
*Elset, elset=_TO-COUPLING_S1_2, internal
 2773, 2774, 2775, 2776, 2777, 2778, 2779, 2780, 2781, 2782, 2783, 2784, 3937, 3938, 3939, 3940
 3941, 3942, 3943, 3944, 3945, 3946, 3947, 3948
*Elset, elset=_TO-COUPLING_S4_2, internal
   21,   22,   23,   24,   55,   56,   63,   64,  133,  134,  135,  136, 2324, 2326, 2328, 2330
 2332, 2334, 2336, 2338, 2340, 2342, 2344, 2346, 2348, 2350, 2352
*Elset, elset=_TO-COUPLING_S2_2, internal
  29,  30,  31,  32,  73,  74,  75,  76,  77,  78,  79,  80,  81,  82,  83,  84
 139, 140, 141, 142, 143, 144
*Elset, elset=_TO-COUPLING_S6_2, internal, generate
 4357,  4379,     2
*Elset, elset=_TO-COUPLING_S3_2, internal
  19,  20,  25,  26,  57,  58,  59,  60,  69,  70,  71,  72, 137, 138
*Surface, type=ELEMENT, name=TO-COUPLING
_TO-COUPLING_S1_2, S1
_TO-COUPLING_S4_2, S4
_TO-COUPLING_S2_2, S2
_TO-COUPLING_S6_2, S6
_TO-COUPLING_S3_2, S3
*Elset, elset=_TO-PIN_S1_2, internal
 3241, 3242, 3243, 3244, 3245, 3246, 3247, 3248, 3249, 3250, 3251, 3252, 3253, 3254, 3255, 3256
 3257, 3258, 3259, 3260, 3261, 3262, 3263, 3264, 3265, 3266, 3267, 3268, 3269, 3270, 3271, 3272
 3273, 3274, 3275, 3276, 3277, 3278, 3279, 3280, 3281, 3282, 3283, 3284, 3285, 3286, 3287, 3288
 3289, 3290, 3291, 3292, 3293, 3294, 3295, 3296, 3297, 3298, 3299, 3300, 3301, 3302, 3303, 3304
 3305, 3306, 3307, 3308, 3309, 3310, 3311, 3312, 3313, 3314, 3315, 3316, 3317, 3318, 3319, 3320
 3321, 3322, 3323, 3324, 3325, 3326, 3327, 3328, 3329, 3330, 3331, 3332, 3333, 3334, 3335, 3336
 3337, 3338, 3339, 3340, 3341, 3342, 3343, 3344, 3345, 3346, 3347, 3348, 3349, 3350, 3351, 3352
 3353, 3354, 3811, 3812, 3813, 3814, 3815, 3816, 3817, 3818, 3819, 3820, 3821, 3822, 3823, 3824
 3825, 3826, 3827, 3828, 3829, 3830, 3831, 3832, 3833, 3834, 3835, 3836, 3837, 3838, 3839, 3840
 3841, 3842, 3843, 3844, 3845, 3846, 3847, 3848, 3849, 3850, 3851, 3852, 3853, 3854, 3855, 3856
 3857, 3858, 3859, 3860, 3861, 3862, 3863, 3864, 3865, 3866, 3867, 3868, 3869, 3870, 3871, 3872
 3873, 3874, 3875, 3876, 3877, 3878, 3879, 3880, 3881, 3882, 3883, 3884, 3885, 3886, 3887, 3888
 3889, 3890, 3891, 3892, 3893, 3894, 3895, 3896, 3897, 3898, 3899, 3900, 3901, 3902, 3903, 3904
 3905, 3906, 3907, 3908, 3909, 3910, 3911, 3912, 3913, 3914, 3915, 3916, 3917, 3918, 3919, 3920
 3921, 3922, 3923, 3924
*Elset, elset=_TO-PIN_S6_2, internal, generate
 3355,  3919,     6
*Elset, elset=_TO-PIN_S4_2, internal
 2355, 2358, 2361, 2364, 2367, 2370, 2373, 2376, 2379, 2382, 2385, 2388, 2391, 2394, 2397, 2400
 2403, 2406, 2409, 2412, 2415, 2418, 2421, 2424, 2427, 2430, 2433, 2436, 2439, 2442, 2445, 2448
 2451, 2454, 2457, 2460, 2463, 2466, 2469, 2472, 2475, 2478, 2481, 2484, 2487, 2490, 2493, 2496
 2499, 2502, 2505, 2508, 2511, 2514, 2517, 2520, 2523, 2526, 2529, 2532, 2664, 2667, 2670, 2673
 2676, 2679, 2682, 2685, 2703, 2706, 2709, 2712, 2715, 2718, 2721, 2724, 2727, 2730, 2790, 2796
 2802, 2808, 2814, 2820, 2826, 2832, 2838, 2844, 2850, 2856, 2862, 2868, 2874, 2880, 2886, 2892
 2898, 2904, 2910, 2916, 2922, 2928, 2934, 2940, 2946, 2952, 2958, 2964, 2970, 2976, 2982, 2988
 2994, 3000, 3006, 3012, 3018, 3024, 3030, 3036, 3042, 3048, 3054, 3060, 3066, 3072, 3078, 3084
 3090, 3096, 3102, 3108, 3114, 3120, 3126, 3132, 3138, 3144, 3150, 3156, 3162, 3168, 3174, 3180
 3186, 3192, 3198, 3204, 3210, 3216, 3222, 3228, 3234, 3240, 3246, 3252, 3258, 3264, 3270, 3276
 3282, 3288, 3294, 3300, 3306, 3312, 3318, 3324, 3330, 3336, 3342, 3348, 3354, 3951, 3954, 3957
 3960, 3963, 3966, 3969, 3972, 3975, 3978, 3981, 3984, 3987, 3990, 3993, 3996, 3999, 4002, 4005
 4008, 4011, 4014, 4017, 4020, 4023, 4026, 4029, 4032, 4035, 4038, 4191, 4194, 4197, 4200, 4203
 4206, 4209, 4212, 4215, 4218, 4221, 4224, 4227, 4230, 4233, 4236, 4239, 4242, 4245, 4248
*Elset, elset=_TO-PIN_S2_2, internal
 2653, 2654, 2655, 2662, 2663, 2664, 4249, 4250, 4251, 4258, 4259, 4260
*Elset, elset=_TO-PIN_S3_2, internal
 2443, 2444, 2445, 2452, 2453, 2454, 2461, 2462, 2463, 2470, 2471, 2472, 2479, 2480, 2481, 2488
 2489, 2490, 2497, 2498, 2499, 2506, 2507, 2508, 2515, 2516, 2517, 2524, 2525, 2526, 2533, 2534
 2539, 2540, 2545, 2546, 2551, 2552, 2557, 2558, 2563, 2564, 2569, 2570, 2575, 2576, 2581, 2582
 2587, 2588, 3949, 3950, 3951, 3958, 3959, 3960, 3967, 3968, 3969, 3976, 3977, 3978, 3985, 3986
 3987, 3994, 3995, 3996, 4003, 4004, 4005, 4012, 4013, 4014, 4021, 4022, 4023, 4030, 4031, 4032
 4039, 4040, 4041, 4048, 4049, 4050, 4057, 4058, 4059, 4066, 4067, 4068, 4075, 4076, 4077, 4084
 4085, 4086, 4093, 4094, 4095, 4102, 4103, 4104, 4111, 4112, 4113, 4120, 4121, 4122, 4249, 4252
 4255, 4267, 4268, 4269, 4270, 4271, 4327, 4328, 4333, 4334, 4339, 4340, 4345, 4346, 4351, 4352
*Surface, type=ELEMENT, name=TO-PIN
_TO-PIN_S1_2, S1
_TO-PIN_S6_2, S6
_TO-PIN_S4_2, S4
_TO-PIN_S2_2, S2
_TO-PIN_S3_2, S3
*Elset, elset=_TO-LINK_S6_2, internal, generate
 2785,  3349,     6
*Elset, elset=_TO-LINK_S2_2, internal
 2785, 2786, 2787, 2788, 2789, 2790, 2791, 2792, 2793, 2794, 2795, 2796, 2797, 2798, 2799, 2800
 2801, 2802, 2803, 2804, 2805, 2806, 2807, 2808, 2809, 2810, 2811, 2812, 2813, 2814, 2815, 2816
 2817, 2818, 2819, 2820, 2821, 2822, 2823, 2824, 2825, 2826, 2827, 2828, 2829, 2830, 2831, 2832
 2833, 2834, 2835, 2836, 2837, 2838, 2839, 2840, 2841, 2842, 2843, 2844, 2845, 2846, 2847, 2848
 2849, 2850, 2851, 2852, 2853, 2854, 2855, 2856, 2857, 2858, 2859, 2860, 2861, 2862, 2863, 2864
 2865, 2866, 2867, 2868, 2869, 2870, 2871, 2872, 2873, 2874, 2875, 2876, 2877, 2878, 2879, 2880
 2881, 2882, 2883, 2884, 2885, 2886, 2887, 2888, 2889, 2890, 2891, 2892, 2893, 2894, 2895, 2896
 2897, 2898, 3355, 3356, 3357, 3358, 3359, 3360, 3361, 3362, 3363, 3364, 3365, 3366, 3367, 3368
 3369, 3370, 3371, 3372, 3373, 3374, 3375, 3376, 3377, 3378, 3379, 3380, 3381, 3382, 3383, 3384
 3385, 3386, 3387, 3388, 3389, 3390, 3391, 3392, 3393, 3394, 3395, 3396, 3397, 3398, 3399, 3400
 3401, 3402, 3403, 3404, 3405, 3406, 3407, 3408, 3409, 3410, 3411, 3412, 3413, 3414, 3415, 3416
 3417, 3418, 3419, 3420, 3421, 3422, 3423, 3424, 3425, 3426, 3427, 3428, 3429, 3430, 3431, 3432
 3433, 3434, 3435, 3436, 3437, 3438, 3439, 3440, 3441, 3442, 3443, 3444, 3445, 3446, 3447, 3448
 3449, 3450, 3451, 3452, 3453, 3454, 3455, 3456, 3457, 3458, 3459, 3460, 3461, 3462, 3463, 3464
 3465, 3466, 3467, 3468
*Elset, elset=_TO-LINK_S4_2, internal
 2534, 2536, 2538, 2540, 2542, 2544, 2546, 2548, 2550, 2552, 2554, 2556, 2558, 2560, 2562, 2564
 2566, 2568, 2570, 2572, 2574, 2576, 2578, 2580, 2582, 2584, 2586, 2588, 2590, 2592, 2595, 2598
 2601, 2604, 2607, 2610, 2613, 2616, 2619, 2622, 2625, 2628, 2631, 2634, 2637, 2640, 2643, 2646
 2649, 2652, 2732, 2734, 2736, 2738, 2740, 2742, 2744, 2746, 2748, 2750, 2752, 2754, 2756, 2758
 2760, 3360, 3366, 3372, 3378, 3384, 3390, 3396, 3402, 3408, 3414, 3420, 3426, 3432, 3438, 3444
 3450, 3456, 3462, 3468, 3474, 3480, 3486, 3492, 3498, 3504, 3510, 3516, 3522, 3528, 3534, 3540
 3546, 3552, 3558, 3564, 3570, 3576, 3582, 3588, 3594, 3600, 3606, 3612, 3618, 3624, 3630, 3636
 3642, 3648, 3654, 3660, 3666, 3672, 3678, 3684, 3690, 3696, 3702, 3708, 3714, 3720, 3726, 3732
 3738, 3744, 3750, 3756, 3762, 3768, 3774, 3780, 3786, 3792, 3798, 3804, 3810, 3816, 3822, 3828
 3834, 3840, 3846, 3852, 3858, 3864, 3870, 3876, 3882, 3888, 3894, 3900, 3906, 3912, 3918, 3924
 4041, 4044, 4047, 4050, 4053, 4056, 4059, 4062, 4065, 4068, 4071, 4074, 4077, 4080, 4083, 4086
 4089, 4092, 4095, 4098, 4101, 4104, 4107, 4110, 4113, 4116, 4119, 4122, 4125, 4128, 4130, 4132
 4134, 4136, 4138, 4140, 4142, 4144, 4146, 4148, 4150, 4152, 4154, 4156, 4158, 4160, 4162, 4164
 4166, 4168, 4170, 4172, 4174, 4176, 4178, 4180, 4182, 4184, 4186, 4188, 4260, 4263, 4266, 4284
 4287, 4290, 4293, 4296, 4299, 4302, 4305, 4308, 4311, 4314, 4317, 4320, 4323, 4326, 4328, 4330
 4332, 4334, 4336, 4338, 4340, 4342, 4344, 4346, 4348, 4350, 4352, 4354, 4356
*Elset, elset=_TO-LINK_S3_2, internal
 2353, 2354, 2355, 2362, 2363, 2364, 2371, 2372, 2373, 2380, 2381, 2382, 2389, 2390, 2391, 2398
 2399, 2400, 2407, 2408, 2409, 2416, 2417, 2418, 2425, 2426, 2427, 2434, 2435, 2436, 2593, 2594
 2595, 2599, 2600, 2601, 2605, 2606, 2607, 2611, 2612, 2613, 2617, 2618, 2619, 2623, 2624, 2625
 2629, 2630, 2631, 2635, 2636, 2637, 2641, 2642, 2643, 2647, 2648, 2649, 2653, 2656, 2659, 2686
 2687, 2688, 2689, 2690, 2701, 2702, 2703, 2707, 2708, 2709, 2713, 2714, 2715, 2719, 2720, 2721
 2725, 2726, 2727, 2731, 2732, 2737, 2738, 2743, 2744, 2749, 2750, 2755, 2756, 4129, 4130, 4135
 4136, 4141, 4142, 4147, 4148, 4153, 4154, 4159, 4160, 4165, 4166, 4171, 4172, 4177, 4178, 4183
 4184, 4189, 4190, 4191, 4195, 4196, 4197, 4201, 4202, 4203, 4207, 4208, 4209, 4213, 4214, 4215
 4219, 4220, 4221, 4225, 4226, 4227, 4231, 4232, 4233, 4237, 4238, 4239, 4243, 4244, 4245, 4297
 4298, 4299, 4303, 4304, 4305, 4309, 4310, 4311, 4315, 4316, 4317, 4321, 4322, 4323
*Surface, type=ELEMENT, name=TO-LINK
_TO-LINK_S6_2, S6
_TO-LINK_S2_2, S2
_TO-LINK_S4_2, S4
_TO-LINK_S3_2, S3
** Section: Section-1-LINK
*Solid Section, elset=LINK, controls=EC-1, material=MAT1
,
*End Part
**  
*Part, name=PIN
*Node
      1,  -515.012878,   125.018799,   3357.18994
      2,   -525.20105,   125.018799,   3373.28662
      3,  -469.505524,   125.018799,    3285.2915
      4,  -479.693726,   125.018799,   3301.38818
      5,  -515.012878,   1.98119998,   3357.18994
      6,   -512.63562,   1.98119998,   3353.43408
      7,  -482.070984,   1.98119998,   3305.14404
      8,  -479.693726,   1.98119998,   3301.38818
      9,   -525.20105,   137.718796,   3373.28662
     10,  -509.307465,   137.718796,   3348.17578
     11,  -485.399109,   137.718796,   3310.40234
     12,  -469.505524,   137.718796,    3285.2915
     13,   -512.63562,  -4.36880016,   3353.43408
     14,  -515.012878,  -4.36880016,   3357.18994
     15,  -479.693726,  -4.36880016,   3301.38818
     16,  -482.070984,  -4.36880016,   3305.14404
     17,  -509.307465,    -140.1064,   3348.17578
     18,   -525.20105,    -140.1064,   3373.28662
     19,  -469.505524,    -140.1064,    3285.2915
     20,  -485.399109,    -140.1064,   3310.40234
** ... 861 like lines cut
*Element, type=R3D4
  1,   1,  25, 321,  46
  2,  25,   2,  26, 321
  3,  46, 321, 322,  45
  4, 321,  26,  27, 322
  5,  45, 322, 323,  44
  6, 322,  27,  28, 323
  7,  44, 323, 324,  43
  8, 323,  28,  29, 324
  9,  43, 324, 325,  42
 10, 324,  29,  30, 325
 11,  42, 325, 326,  41
 12, 325,  30,  31, 326
 13,  41, 326, 327,  40
 14, 326,  31,  32, 327
 15,  40, 327, 328,  39
 16, 327,  32,  33, 328
 17,  39, 328, 329,  38
 18, 328,  33,  34, 329
 19,  38, 329, 330,  37
 20, 329,  34,  35, 330
** ... 838 like lines cut
*Nset, nset=PIN-RefPt_, internal
 881,
*Nset, nset=PIN-REFPT_, internal
 881,
*Nset, nset=RP
 881,
*Elset, elset=_TO-LINK-2_SPOS, internal
 111, 112, 113, 114, 115, 116, 117, 118, 119, 120, 121, 122, 123, 124, 125, 126
 127, 128, 129, 130, 131, 132, 133, 134, 135, 136, 137, 138, 139, 140, 141, 142
 143, 144, 145, 146, 147, 148, 149, 150, 151, 152, 153, 154, 155, 156, 157, 158
 159, 160, 161, 162, 163, 164, 165, 166, 167, 168, 169, 170, 171, 172, 173, 174
 175, 176, 177, 178, 179, 180, 181, 182, 183, 184, 185, 186, 187, 188, 189, 190
 191, 192, 193, 194, 195, 196, 197, 198, 199, 200, 201, 202, 203, 204, 205, 206
 207, 208, 209, 210, 211, 212, 213, 214, 215, 216, 217, 218, 219, 220, 221, 222
 223, 224, 225, 226, 227, 228, 229, 230, 231, 232, 233, 234, 235, 236, 237, 238
 239, 240, 241, 242, 243, 244, 245, 246, 247, 248, 249, 250, 251, 252, 253, 254
 255, 256, 257, 258, 259, 260, 261, 262, 263, 264, 265, 266, 267, 268, 269, 270
 271, 272, 273, 274, 275, 276, 277, 278, 279, 280, 281, 282, 283, 284, 285, 286
 287, 288, 289, 290, 291, 292, 293, 294, 295, 296, 297, 298, 299, 300, 301, 302
 303, 304, 305, 306, 307, 308, 309, 310, 311, 312, 313, 314, 315, 316, 317, 318
 319, 320, 321, 322, 323, 324, 325, 326, 327, 328, 329, 330, 331, 332, 333, 334
 335, 336, 337, 338, 339, 340, 341, 342, 343, 344, 345, 346, 347, 348, 349, 350
 351, 352, 353, 354, 355, 356, 357, 358, 359, 360, 361, 362, 363, 364, 365, 366
 367, 368, 369, 370, 371, 372, 373, 374, 375, 376, 377, 378, 379, 380, 381, 382
 383, 384, 385, 386, 387, 388, 389, 390, 391, 392, 393, 394, 395, 396, 727, 728
 729, 730, 731, 732, 733, 734, 735, 736, 737, 738, 739, 740, 741, 742, 743, 744
 745, 746, 747, 748
*Elset, elset=_TO-LINK-1_SPOS, internal
   1,   2,   3,   4,   5,   6,   7,   8,   9,  10,  11,  12,  13,  14,  15,  16
  17,  18,  19,  20,  21,  22, 419, 420, 421, 422, 423, 424, 425, 426, 427, 428
 429, 430, 431, 432, 433, 434, 435, 436, 437, 438, 439, 440, 441, 442, 443, 444
 445, 446, 447, 448, 449, 450, 451, 452, 453, 454, 455, 456, 457, 458, 459, 460
 461, 462, 463, 464, 465, 466, 467, 468, 469, 470, 471, 472, 473, 474, 475, 476
 477, 478, 479, 480, 481, 482, 483, 484, 485, 486, 487, 488, 489, 490, 491, 492
 493, 494, 495, 496, 497, 498, 499, 500, 501, 502, 503, 504, 505, 506, 507, 508
 509, 510, 511, 512, 513, 514, 515, 516, 517, 518, 519, 520, 521, 522, 523, 524
 525, 526, 527, 528, 529, 530, 531, 532, 533, 534, 535, 536, 537, 538, 539, 540
 541, 542, 543, 544, 545, 546, 547, 548, 549, 550, 551, 552, 553, 554, 555, 556
 557, 558, 559, 560, 561, 562, 563, 564, 565, 566, 567, 568, 569, 570, 571, 572
 573, 574, 575, 576, 577, 578, 579, 580, 581, 582, 583, 584, 585, 586, 587, 588
 589, 590, 591, 592, 593, 594, 595, 596, 597, 598, 599, 600, 601, 602, 603, 604
 605, 606, 607, 608, 609, 610, 611, 612, 613, 614, 615, 616, 617, 618, 619, 620
 621, 622, 623, 624, 625, 626, 627, 628, 629, 630, 631, 632, 633, 634, 635, 636
 637, 638, 639, 640, 641, 642, 643, 644, 645, 646, 647, 648, 649, 650, 651, 652
 653, 654, 655, 656, 657, 658, 659, 660, 661, 662, 663, 664, 665, 666, 667, 668
 669, 670, 671, 672, 673, 674, 675, 676, 677, 678, 679, 680, 681, 682, 771, 772
 773, 774, 775, 776, 777, 778, 779, 780, 781, 782, 783, 784, 785, 786, 787, 788
 789, 790, 791, 792
*Nset, nset=PIN, generate
   1,  881,    1
*Elset, elset=PIN, generate
   1,  858,    1
*Elset, elset=_TO-LINK-2_SPOS_1, internal
 111, 112, 113, 114, 115, 116, 117, 118, 119, 120, 121, 122, 123, 124, 125, 126
 127, 128, 129, 130, 131, 132, 133, 134, 135, 136, 137, 138, 139, 140, 141, 142
 143, 144, 145, 146, 147, 148, 149, 150, 151, 152, 153, 154, 155, 156, 157, 158
 159, 160, 161, 162, 163, 164, 165, 166, 167, 168, 169, 170, 171, 172, 173, 174
 175, 176, 177, 178, 179, 180, 181, 182, 183, 184, 185, 186, 187, 188, 189, 190
 191, 192, 193, 194, 195, 196, 197, 198, 199, 200, 201, 202, 203, 204, 205, 206
 207, 208, 209, 210, 211, 212, 213, 214, 215, 216, 217, 218, 219, 220, 221, 222
 223, 224, 225, 226, 227, 228, 229, 230, 231, 232, 233, 234, 235, 236, 237, 238
 239, 240, 241, 242, 243, 244, 245, 246, 247, 248, 249, 250, 251, 252, 253, 254
 255, 256, 257, 258, 259, 260, 261, 262, 263, 264, 265, 266, 267, 268, 269, 270
 271, 272, 273, 274, 275, 276, 277, 278, 279, 280, 281, 282, 283, 284, 285, 286
 287, 288, 289, 290, 291, 292, 293, 294, 295, 296, 297, 298, 299, 300, 301, 302
 303, 304, 305, 306, 307, 308, 309, 310, 311, 312, 313, 314, 315, 316, 317, 318
 319, 320, 321, 322, 323, 324, 325, 326, 327, 328, 329, 330, 331, 332, 333, 334
 335, 336, 337, 338, 339, 340, 341, 342, 343, 344, 345, 346, 347, 348, 349, 350
 351, 352, 353, 354, 355, 356, 357, 358, 359, 360, 361, 362, 363, 364, 365, 366
 367, 368, 369, 370, 371, 372, 373, 374, 375, 376, 377, 378, 379, 380, 381, 382
 383, 384, 385, 386, 387, 388, 389, 390, 391, 392, 393, 394, 395, 396, 727, 728
 729, 730, 731, 732, 733, 734, 735, 736, 737, 738, 739, 740, 741, 742, 743, 744
 745, 746, 747, 748
*Elset, elset=_TO-LINK-1_SPOS_1, internal
   1,   2,   3,   4,   5,   6,   7,   8,   9,  10,  11,  12,  13,  14,  15,  16
  17,  18,  19,  20,  21,  22, 419, 420, 421, 422, 423, 424, 425, 426, 427, 428
 429, 430, 431, 432, 433, 434, 435, 436, 437, 438, 439, 440, 441, 442, 443, 444
 445, 446, 447, 448, 449, 450, 451, 452, 453, 454, 455, 456, 457, 458, 459, 460
 461, 462, 463, 464, 465, 466, 467, 468, 469, 470, 471, 472, 473, 474, 475, 476
 477, 478, 479, 480, 481, 482, 483, 484, 485, 486, 487, 488, 489, 490, 491, 492
 493, 494, 495, 496, 497, 498, 499, 500, 501, 502, 503, 504, 505, 506, 507, 508
 509, 510, 511, 512, 513, 514, 515, 516, 517, 518, 519, 520, 521, 522, 523, 524
 525, 526, 527, 528, 529, 530, 531, 532, 533, 534, 535, 536, 537, 538, 539, 540
 541, 542, 543, 544, 545, 546, 547, 548, 549, 550, 551, 552, 553, 554, 555, 556
 557, 558, 559, 560, 561, 562, 563, 564, 565, 566, 567, 568, 569, 570, 571, 572
 573, 574, 575, 576, 577, 578, 579, 580, 581, 582, 583, 584, 585, 586, 587, 588
 589, 590, 591, 592, 593, 594, 595, 596, 597, 598, 599, 600, 601, 602, 603, 604
 605, 606, 607, 608, 609, 610, 611, 612, 613, 614, 615, 616, 617, 618, 619, 620
 621, 622, 623, 624, 625, 626, 627, 628, 629, 630, 631, 632, 633, 634, 635, 636
 637, 638, 639, 640, 641, 642, 643, 644, 645, 646, 647, 648, 649, 650, 651, 652
 653, 654, 655, 656, 657, 658, 659, 660, 661, 662, 663, 664, 665, 666, 667, 668
 669, 670, 671, 672, 673, 674, 675, 676, 677, 678, 679, 680, 681, 682, 771, 772
 773, 774, 775, 776, 777, 778, 779, 780, 781, 782, 783, 784, 785, 786, 787, 788
 789, 790, 791, 792
*Elset, elset=_TO-LINK-2_SPOS_2, internal
 111, 112, 113, 114, 115, 116, 117, 118, 119, 120, 121, 122, 123, 124, 125, 126
 127, 128, 129, 130, 131, 132, 133, 134, 135, 136, 137, 138, 139, 140, 141, 142
 143, 144, 145, 146, 147, 148, 149, 150, 151, 152, 153, 154, 155, 156, 157, 158
 159, 160, 161, 162, 163, 164, 165, 166, 167, 168, 169, 170, 171, 172, 173, 174
 175, 176, 177, 178, 179, 180, 181, 182, 183, 184, 185, 186, 187, 188, 189, 190
 191, 192, 193, 194, 195, 196, 197, 198, 199, 200, 201, 202, 203, 204, 205, 206
 207, 208, 209, 210, 211, 212, 213, 214, 215, 216, 217, 218, 219, 220, 221, 222
 223, 224, 225, 226, 227, 228, 229, 230, 231, 232, 233, 234, 235, 236, 237, 238
 239, 240, 241, 242, 243, 244, 245, 246, 247, 248, 249, 250, 251, 252, 253, 254
 255, 256, 257, 258, 259, 260, 261, 262, 263, 264, 265, 266, 267, 268, 269, 270
 271, 272, 273, 274, 275, 276, 277, 278, 279, 280, 281, 282, 283, 284, 285, 286
 287, 288, 289, 290, 291, 292, 293, 294, 295, 296, 297, 298, 299, 300, 301, 302
 303, 304, 305, 306, 307, 308, 309, 310, 311, 312, 313, 314, 315, 316, 317, 318
 319, 320, 321, 322, 323, 324, 325, 326, 327, 328, 329, 330, 331, 332, 333, 334
 335, 336, 337, 338, 339, 340, 341, 342, 343, 344, 345, 346, 347, 348, 349, 350
 351, 352, 353, 354, 355, 356, 357, 358, 359, 360, 361, 362, 363, 364, 365, 366
 367, 368, 369, 370, 371, 372, 373, 374, 375, 376, 377, 378, 379, 380, 381, 382
 383, 384, 385, 386, 387, 388, 389, 390, 391, 392, 393, 394, 395, 396, 727, 728
 729, 730, 731, 732, 733, 734, 735, 736, 737, 738, 739, 740, 741, 742, 743, 744
 745, 746, 747, 748
*Surface, type=ELEMENT, name=TO-LINK-2
_TO-LINK-2_SPOS_2, SPOS
*Elset, elset=_TO-LINK-1_SPOS_2, internal
   1,   2,   3,   4,   5,   6,   7,   8,   9,  10,  11,  12,  13,  14,  15,  16
  17,  18,  19,  20,  21,  22, 419, 420, 421, 422, 423, 424, 425, 426, 427, 428
 429, 430, 431, 432, 433, 434, 435, 436, 437, 438, 439, 440, 441, 442, 443, 444
 445, 446, 447, 448, 449, 450, 451, 452, 453, 454, 455, 456, 457, 458, 459, 460
 461, 462, 463, 464, 465, 466, 467, 468, 469, 470, 471, 472, 473, 474, 475, 476
 477, 478, 479, 480, 481, 482, 483, 484, 485, 486, 487, 488, 489, 490, 491, 492
 493, 494, 495, 496, 497, 498, 499, 500, 501, 502, 503, 504, 505, 506, 507, 508
 509, 510, 511, 512, 513, 514, 515, 516, 517, 518, 519, 520, 521, 522, 523, 524
 525, 526, 527, 528, 529, 530, 531, 532, 533, 534, 535, 536, 537, 538, 539, 540
 541, 542, 543, 544, 545, 546, 547, 548, 549, 550, 551, 552, 553, 554, 555, 556
 557, 558, 559, 560, 561, 562, 563, 564, 565, 566, 567, 568, 569, 570, 571, 572
 573, 574, 575, 576, 577, 578, 579, 580, 581, 582, 583, 584, 585, 586, 587, 588
 589, 590, 591, 592, 593, 594, 595, 596, 597, 598, 599, 600, 601, 602, 603, 604
 605, 606, 607, 608, 609, 610, 611, 612, 613, 614, 615, 616, 617, 618, 619, 620
 621, 622, 623, 624, 625, 626, 627, 628, 629, 630, 631, 632, 633, 634, 635, 636
 637, 638, 639, 640, 641, 642, 643, 644, 645, 646, 647, 648, 649, 650, 651, 652
 653, 654, 655, 656, 657, 658, 659, 660, 661, 662, 663, 664, 665, 666, 667, 668
 669, 670, 671, 672, 673, 674, 675, 676, 677, 678, 679, 680, 681, 682, 771, 772
 773, 774, 775, 776, 777, 778, 779, 780, 781, 782, 783, 784, 785, 786, 787, 788
 789, 790, 791, 792
*Surface, type=ELEMENT, name=TO-LINK-1
_TO-LINK-1_SPOS_2, SPOS
*End Part
**  
**
** ASSEMBLY
**
*Assembly, name=Assembly
**  
*Instance, name=LINK-1, part=LINK
*End Instance
**  
*Instance, name=LINK-2, part=LINK
          0.,           0.,           0.
          0.,           0.,           0.,           0.,           1.,           0.,         180.
*End Instance
**  
*Instance, name=PIN-1, part=PIN
  497.353286,  3329.289031, 1.19380000000001
  497.353286,  3329.289031, 1.19380000000001,   498.353286,  3329.289031, 1.19380000000001,          90.
*End Instance
**  
*Node
      1,  -502.957581,  -134.767075,           0.
      2,   502.957581,  -134.767075,           0.
*Nset, nset=RP1
 1,
*Nset, nset=RP2
 2,
*Elset, elset=DEMOLD-REGION-1, instance=LINK-1
  145,  146,  147,  148,  149,  150,  151,  152,  153,  154,  155,  156,  157,  158,  159,  160
  161,  162,  163,  164,  165,  166,  167,  168,  169,  170,  171,  172,  173,  174,  175,  176
  177,  178,  179,  180,  181,  182,  183,  184,  185,  186,  187,  188,  189,  190,  191,  192
  193,  194,  195,  196,  197,  198,  199,  200,  201,  202,  203,  204,  205,  206,  207,  208
  209,  210,  211,  212,  213,  214,  215,  216,  217,  218,  219,  220,  221,  222,  223,  224
  225,  226,  227,  228,  229,  230,  231,  232,  233,  234,  235,  236,  237,  238,  239,  240
  241,  242,  243,  244,  245,  246,  247,  248,  249,  250,  251,  252,  253,  254,  255,  256
  257,  258,  259,  260,  261,  262,  263,  264,  265,  266,  267,  268,  269,  270,  271,  272
  273,  274,  275,  276,  277,  278,  279,  280,  281,  282,  283,  284,  285,  286,  287,  288
  289,  290,  291,  292,  293,  294,  295,  296,  297,  298,  299,  300,  301,  302,  303,  304
  305,  306,  307,  308,  309,  310,  311,  312,  313,  314,  315,  316,  317,  318,  319,  320
  321,  322,  323,  324,  325,  326,  327,  328,  329,  330,  331,  332,  333,  334,  335,  336
  337,  338,  339,  340,  341,  342,  343,  344,  345,  346,  347,  348,  349,  350,  351,  352
  353,  354,  355,  356,  357,  358,  359,  360,  361,  362,  363,  364,  365,  366,  367,  368
  369,  370,  371,  372,  373,  374,  375,  376,  377,  378,  379,  380,  381,  382,  383,  384
  385,  386,  387,  388,  389,  390,  391,  392,  393,  394,  395,  396,  397,  398,  399,  400
  401,  402,  403,  404,  405,  406,  407,  408,  409,  410,  411,  412,  413,  414,  415,  416
  417,  418,  419,  420,  421,  422,  423,  424,  425,  426,  427,  428,  429,  430,  431,  432
  433,  434,  435,  436,  437,  438,  439,  440,  441,  442,  443,  444,  445,  446,  447,  448
  449,  450,  451,  452,  453,  454,  455,  456,  457,  458,  459,  460,  461,  462,  463,  464
** ... 129 like lines cut
*Elset, elset=DEMOLD-REGION-2, instance=LINK-2
  145,  146,  147,  148,  149,  150,  151,  152,  153,  154,  155,  156,  157,  158,  159,  160
  161,  162,  163,  164,  165,  166,  167,  168,  169,  170,  171,  172,  173,  174,  175,  176
  177,  178,  179,  180,  181,  182,  183,  184,  185,  186,  187,  188,  189,  190,  191,  192
  193,  194,  195,  196,  197,  198,  199,  200,  201,  202,  203,  204,  205,  206,  207,  208
  209,  210,  211,  212,  213,  214,  215,  216,  217,  218,  219,  220,  221,  222,  223,  224
  225,  226,  227,  228,  229,  230,  231,  232,  233,  234,  235,  236,  237,  238,  239,  240
  241,  242,  243,  244,  245,  246,  247,  248,  249,  250,  251,  252,  253,  254,  255,  256
  257,  258,  259,  260,  261,  262,  263,  264,  265,  266,  267,  268,  269,  270,  271,  272
  273,  274,  275,  276,  277,  278,  279,  280,  281,  282,  283,  284,  285,  286,  287,  288
  289,  290,  291,  292,  293,  294,  295,  296,  297,  298,  299,  300,  301,  302,  303,  304
  305,  306,  307,  308,  309,  310,  311,  312,  313,  314,  315,  316,  317,  318,  319,  320
  321,  322,  323,  324,  325,  326,  327,  328,  329,  330,  331,  332,  333,  334,  335,  336
  337,  338,  339,  340,  341,  342,  343,  344,  345,  346,  347,  348,  349,  350,  351,  352
  353,  354,  355,  356,  357,  358,  359,  360,  361,  362,  363,  364,  365,  366,  367,  368
  369,  370,  371,  372,  373,  374,  375,  376,  377,  378,  379,  380,  381,  382,  383,  384
  385,  386,  387,  388,  389,  390,  391,  392,  393,  394,  395,  396,  397,  398,  399,  400
  401,  402,  403,  404,  405,  406,  407,  408,  409,  410,  411,  412,  413,  414,  415,  416
  417,  418,  419,  420,  421,  422,  423,  424,  425,  426,  427,  428,  429,  430,  431,  432
  433,  434,  435,  436,  437,  438,  439,  440,  441,  442,  443,  444,  445,  446,  447,  448
  449,  450,  451,  452,  453,  454,  455,  456,  457,  458,  459,  460,  461,  462,  463,  464
** ... 129 like lines cut
*Elset, elset=OPTIMIZE-REGION, instance=LINK-1, generate
    1,  4578,     1
*Elset, elset=OPTIMIZE-REGION, instance=LINK-2, generate
    1,  4578,     1
*Nset, nset=POINT-ON-CENTRAL-PLANE-1, instance=LINK-1
 73,
*Nset, nset=POINT-ON-CENTRAL-PLANE-2, instance=LINK-2
 73,
*Elset, elset=FROZEN-REGION, instance=LINK-1
    1,    2,    3,    4,    5,    6,    7,    8,    9,   10,   11,   12,   13,   14,   15,   16
   17,   18,   19,   20,   21,   22,   23,   24,   25,   26,   27,   28,   29,   30,   31,   32
   33,   34,   35,   36,   37,   38,   39,   40,   41,   42,   43,   44,   45,   46,   47,   48
   49,   50,   51,   52,   53,   54,   55,   56,   57,   58,   59,   60,   61,   62,   63,   64
   65,   66,   67,   68,   69,   70,   71,   72,   73,   74,   75,   76,   77,   78,   79,   80
   81,   82,   83,   84,   85,   86,   87,   88,   89,   90,   91,   92,   93,   94,   95,   96
   97,   98,   99,  100,  101,  102,  103,  104,  105,  106,  107,  108,  109,  110,  111,  112
  113,  114,  115,  116,  117,  118,  119,  120,  121,  122,  123,  124,  125,  126,  127,  128
  129,  130,  131,  132,  133,  134,  135,  136,  137,  138,  139,  140,  141,  142,  143,  144
 2323, 2324, 2325, 2326, 2327, 2328, 2329, 2330, 2331, 2332, 2333, 2334, 2335, 2336, 2337, 2338
 2339, 2340, 2341, 2342, 2343, 2344, 2345, 2346, 2347, 2348, 2349, 2350, 2351, 2352, 2353, 2354
 2355, 2356, 2357, 2358, 2359, 2360, 2361, 2362, 2363, 2364, 2365, 2366, 2367, 2368, 2369, 2370
 2371, 2372, 2373, 2374, 2375, 2376, 2377, 2378, 2379, 2380, 2381, 2382, 2383, 2384, 2385, 2386
 2387, 2388, 2389, 2390, 2391, 2392, 2393, 2394, 2395, 2396, 2397, 2398, 2399, 2400, 2401, 2402
 2403, 2404, 2405, 2406, 2407, 2408, 2409, 2410, 2411, 2412, 2413, 2414, 2415, 2416, 2417, 2418
 2419, 2420, 2421, 2422, 2423, 2424, 2425, 2426, 2427, 2428, 2429, 2430, 2431, 2432, 2433, 2434
 2435, 2436, 2437, 2438, 2439, 2440, 2441, 2442, 2443, 2444, 2445, 2446, 2447, 2448, 2449, 2450
 2451, 2452, 2453, 2454, 2455, 2456, 2457, 2458, 2459, 2460, 2461, 2462, 2463, 2464, 2465, 2466
 2467, 2468, 2469, 2470, 2471, 2472, 2473, 2474, 2475, 2476, 2477, 2478, 2479, 2480, 2481, 2482
 2483, 2484, 2485, 2486, 2487, 2488, 2489, 2490, 2491, 2492, 2493, 2494, 2495, 2496, 2497, 2498
** ... 118 like lines cut
*Elset, elset=FROZEN-REGION, instance=LINK-2
    1,    2,    3,    4,    5,    6,    7,    8,    9,   10,   11,   12,   13,   14,   15,   16
   17,   18,   19,   20,   21,   22,   23,   24,   25,   26,   27,   28,   29,   30,   31,   32
   33,   34,   35,   36,   37,   38,   39,   40,   41,   42,   43,   44,   45,   46,   47,   48
   49,   50,   51,   52,   53,   54,   55,   56,   57,   58,   59,   60,   61,   62,   63,   64
   65,   66,   67,   68,   69,   70,   71,   72,   73,   74,   75,   76,   77,   78,   79,   80
   81,   82,   83,   84,   85,   86,   87,   88,   89,   90,   91,   92,   93,   94,   95,   96
   97,   98,   99,  100,  101,  102,  103,  104,  105,  106,  107,  108,  109,  110,  111,  112
  113,  114,  115,  116,  117,  118,  119,  120,  121,  122,  123,  124,  125,  126,  127,  128
  129,  130,  131,  132,  133,  134,  135,  136,  137,  138,  139,  140,  141,  142,  143,  144
 2323, 2324, 2325, 2326, 2327, 2328, 2329, 2330, 2331, 2332, 2333, 2334, 2335, 2336, 2337, 2338
 2339, 2340, 2341, 2342, 2343, 2344, 2345, 2346, 2347, 2348, 2349, 2350, 2351, 2352, 2353, 2354
 2355, 2356, 2357, 2358, 2359, 2360, 2361, 2362, 2363, 2364, 2365, 2366, 2367, 2368, 2369, 2370
 2371, 2372, 2373, 2374, 2375, 2376, 2377, 2378, 2379, 2380, 2381, 2382, 2383, 2384, 2385, 2386
 2387, 2388, 2389, 2390, 2391, 2392, 2393, 2394, 2395, 2396, 2397, 2398, 2399, 2400, 2401, 2402
 2403, 2404, 2405, 2406, 2407, 2408, 2409, 2410, 2411, 2412, 2413, 2414, 2415, 2416, 2417, 2418
 2419, 2420, 2421, 2422, 2423, 2424, 2425, 2426, 2427, 2428, 2429, 2430, 2431, 2432, 2433, 2434
 2435, 2436, 2437, 2438, 2439, 2440, 2441, 2442, 2443, 2444, 2445, 2446, 2447, 2448, 2449, 2450
 2451, 2452, 2453, 2454, 2455, 2456, 2457, 2458, 2459, 2460, 2461, 2462, 2463, 2464, 2465, 2466
 2467, 2468, 2469, 2470, 2471, 2472, 2473, 2474, 2475, 2476, 2477, 2478, 2479, 2480, 2481, 2482
 2483, 2484, 2485, 2486, 2487, 2488, 2489, 2490, 2491, 2492, 2493, 2494, 2495, 2496, 2497, 2498
** ... 118 like lines cut
*Orientation, name=PULL-DIRECTION-CSYS-1
0.965925775331622, 0.258819235278226,           0., -0.258819235278226, 0.965925775331622,           0.
1, 0.
*Orientation, name=PULL-DIRECTION-CSYS-2
-0.965925846484198, 0.25881896973326,           0., 0.25881896973326, 0.965925846484198,           0.
1, 0.
** Constraint: COUPLING-LINK1
*Coupling, constraint name=COUPLING-LINK1, ref node=RP1, surface=LINK-1.TO-COUPLING
*Kinematic
** Constraint: COUPLING-LINK2
*Coupling, constraint name=COUPLING-LINK2, ref node=RP2, surface=LINK-2.TO-COUPLING
*Kinematic
** Constraint: RigidBody-1
*Rigid Body, ref node=PIN-1.PIN-REFPT_, elset=PIN-1.PIN
** Constraint: TIE-LINK2
*Tie, name=TIE-LINK2, adjust=yes, position tolerance=2.
LINK-2.TO-PIN, PIN-1.TO-LINK-2
*End Assembly
** 
** ELEMENT CONTROLS
** 
*Section Controls, name=EC-1, hourglass=ENHANCED
1., 1., 1.
** 
** MATERIALS
** 
**   Density 4.46e-9 tonne/mm3; Elastic 114e3 MPa; Poisson 0.34; Exp Coeff 
**   9.5e-6 (mm/mm) / C
** 
** 
**  COMMENTS FROM *ELASTIC
**  ======================
** 
*Material, name=MAT1
*Elastic
114000., 0.34
** 
** INTERACTION PROPERTIES
** 
*Surface Interaction, name=INTPROP-1
** 
** BOUNDARY CONDITIONS
** 
** Name: Disp-BC-1 Type: Displacement/Rotation
*Boundary
RP1, 2, 2
** Name: Disp-BC-2 Type: Displacement/Rotation
*Boundary
RP1, 3, 3
** Name: Disp-BC-3 Type: Displacement/Rotation
*Boundary
RP2, 1, 1
** Name: Disp-BC-4 Type: Displacement/Rotation
*Boundary
RP2, 2, 2
** Name: Disp-BC-5 Type: Displacement/Rotation
*Boundary
RP2, 3, 3
** Name: Disp-BC-6 Type: Displacement/Rotation
*Boundary
RP2, 4, 4
** Name: Disp-BC-7 Type: Displacement/Rotation
*Boundary
RP2, 5, 5
** Name: Disp-BC-8 Type: Displacement/Rotation
*Boundary
RP2, 6, 6
** 
** INTERACTIONS
** 
** ** Interaction: INTPROP-1-1
** *Contact Pair, interaction=INTPROP-1, type=SURFACE TO SURFACE
** LINK-2.TO-PIN, PIN-1.TO-LINK-2
** Interaction: INTPROP-1-2
*Contact Pair, interaction=INTPROP-1, type=SURFACE TO SURFACE
LINK-2.TO-LINK, LINK-1.TO-LINK
** Interaction: INTPROP-1-3
*Contact Pair, interaction=INTPROP-1, type=SURFACE TO SURFACE
LINK-1.TO-PIN, PIN-1.TO-LINK-1
** ----------------------------------------------------------------
** 
** STEP: Step-1-TURNING
** 
*Step, name=Step-1-TURNING, nlgeom=YES
*Static
1., 1., 1e-10, 1.
** 
** LOADS
** 
** Name: CFORCE-1   Type: Concentrated force
*Cload, op=NEW
RP1, 1, 333615.
** Name: CFORCE-2   Type: Moment
*Cload, op=NEW
RP1, 4, -1.69475e+08
** Name: CFORCE-3   Type: Moment
*Cload, op=NEW
RP1, 5, 6.2705e+06
** 
** CONTROLS
** 
*Controls, reset
*Controls, parameters=time incrementation
, , , , , , , 20, , , 
** 
** OUTPUT REQUESTS
** 
*Restart, write, frequency=0
** 
** FIELD OUTPUT: F-Output-1
** 
*Output, field, frequency=99999
*Contact Output
CDISP, CSTRESS
** 
** FIELD OUTPUT: F-Output-2
** 
*Element Output, directions=YES
LE, S
** 
** FIELD OUTPUT: F-Output-3
** 
*Node Output
RF, U
** 
** HISTORY OUTPUT: H-Output-1
** 
*Output, history, frequency=99999
*Node Output, nset=RP1
UR1, 
** 
** HISTORY OUTPUT: H-Output-2
** 
*Output, history, variable=PRESELECT, frequency=99999
*End Step
