*HEADING
Note: This file intended for use with the Element Selection Lecture Series.
**
*NODE
       1,          0.,          0.
       2,        0.03,          0.
       3,        0.06,          0.
       4,        0.09,          0.
       5,        0.12,          0.
       6,        0.15,          0.
       7,        0.18,          0.
       8,        0.21,          0.
       9,        0.24,          0.
      10,        0.27,          0.
      11,         0.3,          0.
      12,          0.,      0.0125
      13,        0.06,      0.0125
      14,        0.12,      0.0125
      15,        0.18,      0.0125
      16,        0.24,      0.0125
      17,         0.3,      0.0125
      18,          0.,       0.025
      19,        0.03,       0.025
      20,        0.06,       0.025
** ... 277 like lines cut
**
**
*ELEMENT, TYPE=C3D20, ELSET=BLOCK
       1,       1,       3,      20,      18,     110,     112,     129,
     127,       2,      13,      19,      12,     111,     122,     128,
     121,      80,      81,      87,      86
       2,       3,       5,      22,      20,     112,     114,     131,
     129,       4,      14,      21,      13,     113,     123,     130,
     122,      81,      82,      88,      87
       3,       5,       7,      24,      22,     114,     116,     133,
     131,       6,      15,      23,      14,     115,     124,     132,
     123,      82,      83,      89,      88
       4,       7,       9,      26,      24,     116,     118,     135,
     133,       8,      16,      25,      15,     117,     125,     134,
     124,      83,      84,      90,      89
       5,       9,      11,      28,      26,     118,     120,     137,
     135,      10,      17,      27,      16,     119,     126,     136,
     125,      84,      85,      91,      90
       6,      18,      20,      37,      35,     127,     129,     146,
     144,      19,      30,      36,      29,     128,     139,     145,
     138,      86,      87,      93,      92
       7,      20,      22,      39,      37,     129,     131,     148,
     146,      21,      31,      38,      30,     130,     140,     147,
** ... 100 like lines cut
**
** block
**
*SOLID SECTION, ELSET=BLOCK, MATERIAL=STEEL
          1.,
**
*Elset, elset=load_S4, generate
  5,  40,   5
*Surface, type=ELEMENT, name=load
load_S4, S4
**
** steel
**
*MATERIAL, NAME=STEEL
**
*DENSITY
       7850.,
**
*ELASTIC, TYPE=ISO
    2.07E+11,         0.3
**
** step  1
**
*STEP
*FREQUENCY, eigensolver=lanczos, SIM=NO
 3, , , 
**
** fixed
**
*BOUNDARY, OP=NEW
       1, 1,,          0.
       1, 2,,          0.
       1, 3,,          0.
      12, 1,,          0.
      12, 2,,          0.
      12, 3,,          0.
      18, 1,,          0.
      18, 2,,          0.
      18, 3,,          0.
      29, 1,,          0.
      29, 2,,          0.
      29, 3,,          0.
      35, 1,,          0.
      35, 2,,          0.
      35, 3,,          0.
      46, 1,,          0.
      46, 2,,          0.
      46, 3,,          0.
      52, 1,,          0.
      52, 2,,          0.
** ... 91 like lines cut
**
*OUTPUT, FIELD, VARIABLE=PRESELECT
*OUTPUT, HISTORY
*MODAL OUTPUT
*END STEP
