*HEADING
Note: This file intended for use with the Element Selection Lecture Series.
**
*NODE
     229,         0.3,          0.,        0.07
     230,          0.,          0.
     231,        0.06,          0.
     232,        0.12,          0.
     233,        0.18,          0.
     234,        0.24,          0.
     235,         0.3,          0.
     236,          0.,       0.025
     237,        0.06,       0.025
     238,        0.12,       0.025
     239,        0.18,       0.025
     240,        0.24,       0.025
     241,         0.3,       0.025
     242,          0.,        0.05
     243,        0.06,        0.05
     244,        0.12,        0.05
     245,        0.18,        0.05
     246,        0.24,        0.05
     247,         0.3,        0.05
     248,          0.,   0.0750005
** ... 71 like lines cut
**
**
*ELEMENT, TYPE=C3D8I, ELSET=BLOCK
       1,     230,     231,     237,     236,     260,     261,
     267,     266
       2,     231,     232,     238,     237,     261,     262,
     268,     267
       3,     232,     233,     239,     238,     262,     263,
     269,     268
       4,     233,     234,     240,     239,     263,     264,
     270,     269
       5,     234,     235,     241,     240,     264,     265,
     271,     270
       6,     236,     237,     243,     242,     266,     267,
     273,     272
       7,     237,     238,     244,     243,     267,     268,
     274,     273
       8,     238,     239,     245,     244,     268,     269,
     275,     274
       9,     239,     240,     246,     245,     269,     270,
     276,     275
      10,     240,     241,     247,     246,     270,     271,
     277,     276
** ... 60 like lines cut
**
** block
**
*SOLID SECTION, ELSET=BLOCK, MATERIAL=STEEL
          1.,
**
** steel
**
*MATERIAL, NAME=STEEL
**
*DENSITY
       7850.,
**
*ELASTIC, TYPE=ISO
    2.07E+11,         0.3
**
*Nset, nset=fixed, generate
 230,  314,    6
*Nset, nset=free, generate
 235,  319,    6
*Nset, nset=free1n
 235
**
** step  1
**
*STEP
*FREQUENCY, eigensolver=lanczos, SIM=NO
 3, , , 
**
**
*BOUNDARY
fixed, 1,3
**
*OUTPUT,FIELD, VARIABLE=PRESELECT
*OUTPUT,HISTORY
*MODAL OUTPUT
*END STEP
