*HEADING
Note: This file intended for use with the Element Selection Lecture Series.
**
*NODE
       1,          0.,          0.
       2,        0.03,          0.
       3,        0.06,          0.
       4,        0.09,          0.
       5,        0.12,          0.
       6,        0.15,          0.
       7,        0.18,          0.
       8,        0.21,          0.
       9,        0.24,          0.
      10,        0.27,          0.
      11,         0.3,          0.
      12,          0.,      0.0125
      13,        0.03,      0.0125
      14,        0.06,      0.0125
      15,        0.09,      0.0125
      16,        0.12,      0.0125
      17,        0.15,      0.0125
      18,        0.18,      0.0125
      19,        0.21,      0.0125
      20,        0.24,      0.0125
** ... 475 like lines cut
**
**
*ELEMENT, TYPE=C3D8R, ELSET=BLOCK
       1,       1,       2,      13,      12,     100,     101,
     112,     111
       2,       2,       3,      14,      13,     101,     102,
     113,     112
       3,       3,       4,      15,      14,     102,     103,
     114,     113
       4,       4,       5,      16,      15,     103,     104,
     115,     114
       5,       5,       6,      17,      16,     104,     105,
     116,     115
       6,       6,       7,      18,      17,     105,     106,
     117,     116
       7,       7,       8,      19,      18,     106,     107,
     118,     117
       8,       8,       9,      20,      19,     107,     108,
     119,     118
       9,       9,      10,      21,      20,     108,     109,
     120,     119
      10,      10,      11,      22,      21,     109,     110,
     121,     120
** ... 620 like lines cut
**
** block
**
*SOLID SECTION, ELSET=BLOCK, MATERIAL=STEEL
          1.,
**
** steel
**
*MATERIAL, NAME=STEEL
**
*DENSITY
       7850.,
**
*ELASTIC, TYPE=ISO
    2.07E+11,         0.3
**
*Nset, nset=fixed, generate
   1,  485,   11
*Nset, nset=free, generate
  11,  495,   11
*Nset, nset=free1n
 11,
**
** step  1
**
*STEP
*FREQUENCY, eigensolver=lanczos, SIM=NO
 3, , , 
**
**
*BOUNDARY
fixed,1,3
**
*OUTPUT,FIELD, VARIABLE=PRESELECT
*OUTPUT,HISTORY
*MODAL OUTPUT
*END STEP
