*HEADING
Note: This file intended for use with the Element Selection Lecture Series.
**
*NODE
       1,          0.,          0.
       2,        0.03,          0.
       3,        0.06,          0.
       4,        0.09,          0.
       5,        0.12,          0.
       6,        0.15,          0.
       7,        0.18,          0.
       8,        0.21,          0.
       9,        0.24,          0.
      10,        0.27,          0.
      11,         0.3,          0.
      12,          0.,      0.0125
      13,        0.03,      0.0125
      14,        0.06,      0.0125
      15,        0.09,      0.0125
      16,        0.12,      0.0125
      17,        0.15,      0.0125
      18,        0.18,      0.0125
      19,        0.21,      0.0125
      20,        0.24,      0.0125
** ... 435 like lines cut
**
**
*ELEMENT, TYPE=C3D10, ELSET=BLOCK
       1,       1,      23,     179,       3,      12,     111,     100,
       2,      13,     101
       2,     201,     179,      23,     203,     190,     111,     117,
     202,     191,     118
       3,      25,       3,     203,      23,      14,     112,     119,
      24,      13,     118
       4,     181,     203,       3,     179,     192,     112,     102,
     180,     191,     101
       5,       3,      23,     179,     203,      13,     111,     101,
     112,     118,     191
       6,      25,     203,       3,      27,     119,     112,      14,
      26,     120,      15
       7,     181,       3,     203,     183,     102,     112,     192,
     182,     103,     193
       8,       5,     183,      27,       3,     104,     113,      16,
       4,     103,      15
       9,     205,      27,     183,     203,     121,     113,     194,
     204,     120,     193
      10,       3,      27,     203,     183,      15,     120,     112,
     103,     113,     193
** ... 380 like lines cut
**
** block
**
*SOLID SECTION, ELSET=BLOCK, MATERIAL=STEEL
          1.,
**
*Elset, elset=load_S1
  23,  24,  48,  49,  73,  74,  98,  99, 123, 124, 148, 149, 173, 174, 198, 199
*Surface, type=ELEMENT, name=load
load_S1, S1
**
** steel
**
*MATERIAL, NAME=STEEL
**
*DENSITY
       7850.,
**
*ELASTIC, TYPE=ISO
    2.07E+11,         0.3
**
*Nset, nset=fixed
   1,  12,  23,  34,  45,  56,  67,  78,  89, 100, 111, 117, 128, 134, 145, 151
 162, 168, 179, 190, 201, 212, 223, 234, 245, 256, 267, 278, 289, 295, 306, 312
 323, 329, 340, 346, 357, 368, 379, 390, 401, 412, 423, 434, 445
*Nset, nset=free
  11,  22,  33,  44,  55,  66,  77,  88,  99, 110, 116, 127, 133, 144, 150, 161
 167, 178, 189, 200, 211, 222, 233, 244, 255, 266, 277, 288, 294, 305, 311, 322
 328, 339, 345, 356, 367, 378, 389, 400, 411, 422, 433, 444, 455
*Nset, nset=free1n
 11,
**
** step  1
**
*STEP
*FREQUENCY, eigensolver=lanczos, SIM=NO
 3, , , 
**
**
*BOUNDARY
fixed,1,3
**
*OUTPUT, FIELD, VARIABLE=PRESELECT
*OUTPUT, HISTORY
*MODAL OUTPUT
*END STEP
