*HEADING
Note: This file intended for use with the Element Selection Lecture Series
**
*NODE
       1,          0.,          0.
       2,       0.015,          0.
       3,        0.03,          0.
       4,       0.045,          0.
       5,        0.06,          0.
       6,       0.075,          0.
       7,        0.09,          0.
       8,       0.105,          0.
       9,        0.12,          0.
      10,       0.135,          0.
      11,        0.15,          0.
      12,       0.165,          0.
      13,        0.18,          0.
      14,       0.195,          0.
      15,        0.21,          0.
      16,       0.225,          0.
      17,        0.24,          0.
      18,       0.255,          0.
      19,        0.27,          0.
      20,       0.285,          0.
** ... 3193 like lines cut
**
**
*ELEMENT, TYPE=C3D4, ELSET=BLOCK
       1,       1,      22,     358,       2
       2,     379,     358,      22,     380
       3,      23,       2,     380,      22
       4,     359,     380,       2,     358
       5,       2,      22,     358,     380
       6,      23,     380,       2,      24
       7,     359,       2,     380,     360
       8,       3,     360,      24,       2
       9,     381,      24,     360,     380
      10,       2,      24,     380,     360
      11,       3,      24,     360,       4
      12,     381,     360,      24,     382
      13,      25,       4,     382,      24
      14,     361,     382,       4,     360
      15,       4,      24,     360,     382
      16,      25,     382,       4,      26
      17,     361,       4,     382,     362
      18,       5,     362,      26,       4
      19,     383,      26,     362,     382
      20,       4,      26,     382,     362
** ... 12780 like lines cut
**
** block
**
*SOLID SECTION, ELSET=BLOCK, MATERIAL=STEEL
          1.,
**
** steel
**
*MATERIAL, NAME=STEEL
**
*DENSITY
       7850.,
**
*ELASTIC, TYPE=ISO
    2.07E+11,         0.3
**
*Nset, nset=fixed, generate
    1,  3193,    21
*Nset, nset=free, generate
   21,  3213,    21
*Nset, nset=free1n
 21,
**
** step  1
**
*STEP
*FREQUENCY, eigensolver=lanczos
 3, , , 
**
**
*BOUNDARY
free,1,3
**
*OUTPUT, FIELD, VARIABLE=PRESELECT
*OUTPUT, HISTORY
*MODAL OUTPUT
*END STEP
