*HEADING
Note: This file intended for use with the Element Selection Lecture Series.
**
*NODE
       1,          0.,          0.
       2,        0.06,          0.
       3,        0.12,          0.
       4,        0.18,          0.
       5,        0.24,          0.
       6,         0.3,          0.
       7,          0.,       0.025
       8,        0.06,       0.025
       9,        0.12,       0.025
      10,        0.18,       0.025
      11,        0.24,       0.025
      12,         0.3,       0.025
      13,          0.,        0.05
      14,        0.06,        0.05
      15,        0.12,        0.05
      16,        0.18,        0.05
      17,        0.24,        0.05
      18,         0.3,        0.05
      19,          0.,   0.0750005
      20,        0.06,   0.0750005
** ... 70 like lines cut
**
**
*ELEMENT, TYPE=C3D4, ELSET=BLOCK
       1,       1,       7,      31,       2
       2,      37,      31,       7,      38
       3,       8,       2,      38,       7
       4,      32,      38,       2,      31
       5,       2,       7,      31,      38
       6,       8,      38,       2,       9
       7,      32,       2,      38,      33
       8,       3,      33,       9,       2
       9,      39,       9,      33,      38
      10,       2,       9,      38,      33
      11,       3,       9,      33,       4
      12,      39,      33,       9,      40
      13,      10,       4,      40,       9
      14,      34,      40,       4,      33
      15,       4,       9,      33,      40
      16,      10,      40,       4,      11
      17,      34,       4,      40,      35
      18,       5,      35,      11,       4
      19,      41,      11,      35,      40
      20,       4,      11,      40,      35
** ... 180 like lines cut
**
** block
**
*SOLID SECTION, ELSET=BLOCK, MATERIAL=STEEL
          1.,
**
** steel
**
*MATERIAL, NAME=STEEL
**
*DENSITY
       7850.,
**
*ELASTIC, TYPE=ISO
    2.07E+11,         0.3
**
*Nset, nset=fixed, generate
  1,  85,   6
*Nset, nset=free, generate
  6,  90,   6
*Nset, nset=free1n
 6,
**
** step  1
**
*STEP
*FREQUENCY, eigensolver=lanczos, SIM=NO
 3, , , 
**
**
*BOUNDARY
fixed,1,3,
**
*OUTPUT, FIELD, VARIABLE=PRESELECT
*OUTPUT, HISTORY
*MODAL OUTPUT
*END STEP
