*HEADING
Note: This file intended for use with the Element Selection Lecture Series.
**
*NODE
       1,          0.,          0.
       2,        0.03,          0.
       3,        0.06,          0.
       4,        0.09,          0.
       5,        0.12,          0.
       6,        0.15,          0.
       7,        0.18,          0.
       8,        0.21,          0.
       9,        0.24,          0.
      10,        0.27,          0.
      11,         0.3,          0.
      12,          0.,      0.0125
      13,        0.03,      0.0125
      14,        0.06,      0.0125
      15,        0.09,      0.0125
      16,        0.12,      0.0125
      17,        0.15,      0.0125
      18,        0.18,      0.0125
      19,        0.21,      0.0125
      20,        0.24,      0.0125
** ... 475 like lines cut
**
**
*ELEMENT, TYPE=C3D4, ELSET=BLOCK
       1,       1,      12,     100,       2
       2,     111,     100,      12,     112
       3,      13,       2,     112,      12
       4,     101,     112,       2,     100
       5,       2,      12,     100,     112
       6,      13,     112,       2,      14
       7,     101,       2,     112,     102
       8,       3,     102,      14,       2
       9,     113,      14,     102,     112
      10,       2,      14,     112,     102
      11,       3,      14,     102,       4
      12,     113,     102,      14,     114
      13,      15,       4,     114,      14
      14,     103,     114,       4,     102
      15,       4,      14,     102,     114
      16,      15,     114,       4,      16
      17,     103,       4,     114,     104
      18,       5,     104,      16,       4
      19,     115,      16,     104,     114
      20,       4,      16,     114,     104
** ... 1580 like lines cut
**
** block
**
*SOLID SECTION, ELSET=BLOCK, MATERIAL=STEEL
          1.,
**
** steel
**
*MATERIAL, NAME=STEEL
**
*DENSITY
       7850.,
**
*ELASTIC, TYPE=ISO
    2.07E+11,         0.3
**
*Nset, nset=fixed, generate
   1,  485,   11
*Nset, nset=free, generate
  11,  495,   11
*Nset, nset=free1n
 11,
**
** step  1
**
*STEP
*FREQUENCY, eigensolver=lanczos, SIM=NO
 3, , , 
**
**
*BOUNDARY
free,1,3
**
*OUTPUT, FIELD, VARIABLE=PRESELECT
*OUTPUT, HISTORY
*MODAL OUTPUT
*END STEP
