1

   Abaqus 2023.HF4                                  Date 09-Jun-2024   Time 17:20:47
   For use by AALTO UNIVERSITY under license from Dassault Systemes or its subsidiary.

                                                                                 
                                                                                 
 STEP    1     INCREMENT     1     STEP TIME    0.00    


                        S T E P       1     S T A T I C   A N A L Y S I S


                                                                                          

     AUTOMATIC TIME CONTROL WITH -
          A SUGGESTED INITIAL TIME INCREMENT OF                 10.0    
          AND A TOTAL TIME PERIOD OF                           1.000E+03
          THE MINIMUM TIME INCREMENT ALLOWED IS                1.000E-05
          THE MAXIMUM TIME INCREMENT ALLOWED IS                 10.0    

     LINEAR EQUATION SOLVER TYPE         DIRECT SPARSE

 CONVERGENCE TOLERANCE PARAMETERS FOR FORCE    
     CRITERION FOR RESIDUAL FORCE     FOR A NONLINEAR PROBLEM          5.000E-03
     CRITERION FOR DISP.    CORRECTION IN A NONLINEAR PROBLEM          1.000E-02
     INITIAL VALUE OF TIME AVERAGE FORCE                               1.000E-02
     AVERAGE FORCE     IS TIME AVERAGE FORCE    
     ALTERNATE CRIT. FOR RESIDUAL FORCE     FOR A NONLINEAR PROBLEM    2.000E-02
     CRITERION FOR ZERO FORCE     RELATIVE TO TIME AVRG. FORCE         1.000E-05
     CRITERION FOR RESIDUAL FORCE     WHEN THERE IS ZERO FLUX          1.000E-05
     CRITERION FOR DISP.    CORRECTION WHEN THERE IS ZERO FLUX         1.000E-03
     CRITERION FOR RESIDUAL FORCE     FOR A LINEAR INCREMENT           1.000E-08
     FIELD CONVERSION RATIO                                             1.00    
     CRITERION FOR ZERO FORCE     REL. TO TIME AVRG. MAX. FORCE        1.000E-05
     CRITERION FOR ZERO DISP.    RELATIVE TO CHARACTERISTIC LENGTH     1.000E-08

     VOLUMETRIC STRAIN COMPATIBILITY TOLERANCE FOR HYBRID SOLIDS       1.000E-05
     AXIAL STRAIN COMPATIBILITY TOLERANCE FOR HYBRID BEAMS             1.000E-05
     TRANS. SHEAR STRAIN COMPATIBILITY TOLERANCE FOR HYBRID BEAMS      1.000E-05
     SOFT CONTACT CONSTRAINT COMPATIBILITY TOLERANCE FOR P>P0          5.000E-03
     SOFT CONTACT CONSTRAINT COMPATIBILITY TOLERANCE FOR P=0.0         0.100    
     CONTACT FORCE ERROR TOLERANCE FOR CONVERT SDI=YES                 1.00    
     DISPLACEMENT COMPATIBILITY TOLERANCE FOR DCOUP ELEMENTS           1.000E-05
     ROTATION COMPATIBILITY TOLERANCE FOR DCOUP ELEMENTS               1.000E-05

 EQUILIBRIUM WILL BE CHECKED FOR SEVERE DISCONTINUITY ITERATIONS

 TIME INCREMENTATION CONTROL PARAMETERS:
     FIRST EQUILIBRIUM ITERATION FOR CONSECUTIVE DIVERGENCE CHECK              4
     EQUILIBRIUM ITERATION AT WHICH LOG. CONVERGENCE RATE CHECK BEGINS         8
     EQUILIBRIUM ITERATION AFTER WHICH ALTERNATE RESIDUAL IS USED              9
     MAXIMUM EQUILIBRIUM ITERATIONS ALLOWED                                   16
     EQUILIBRIUM ITERATION COUNT FOR CUT-BACK IN NEXT INCREMENT               10
     MAXIMUM EQUILIB. ITERS IN TWO INCREMENTS FOR TIME INCREMENT INCREASE      4
     MAXIMUM ITERATIONS FOR SEVERE DISCONTINUITIES                            50
     MAXIMUM ATTEMPTS ALLOWED IN AN INCREMENT                                  5
     MAXIMUM DISCON. ITERS IN TWO INCREMENTS FOR TIME INCREMENT INCREASE      50
     MAXIMUM CONTACT AUGMENTATIONS FOR *SURFACE BEHAVIOR,AUGMENTED LAGRANGE   50
     CUT-BACK FACTOR AFTER DIVERGENCE                                 0.2500    
     CUT-BACK FACTOR FOR TOO SLOW CONVERGENCE                         0.5000    
     CUT-BACK FACTOR AFTER TOO MANY EQUILIBRIUM ITERATIONS            0.7500    
     CUT-BACK FACTOR AFTER TOO MANY SEVERE DISCONTINUITY ITERATIONS   0.2500    
     CUT-BACK FACTOR AFTER PROBLEMS IN ELEMENT ASSEMBLY               0.2500    
     INCREASE FACTOR AFTER TWO INCREMENTS THAT CONVERGE QUICKLY        1.500    
     MAX. TIME INCREMENT INCREASE FACTOR ALLOWED                       1.500    
     MAX. TIME INCREMENT INCREASE FACTOR ALLOWED (DYNAMICS)            1.250    
     MAX. TIME INCREMENT INCREASE FACTOR ALLOWED (DIFFUSION)           2.000    
     MINIMUM TIME INCREMENT RATIO FOR EXTRAPOLATION TO OCCUR          0.1000    
     MAX. RATIO OF TIME INCREMENT TO STABILITY LIMIT                   1.000    
     FRACTION OF STABILITY LIMIT FOR NEW TIME INCREMENT               0.9500    
     TIME INCREMENT INCREASE FACTOR BEFORE A TIME POINT                1.000    
     GLOBAL STABILIZATION CONTROL IS NOT USED

          PRINT OF INCREMENT NUMBER, TIME, ETC., EVERY    1  INCREMENTS

     THE MAXIMUM NUMBER OF INCREMENTS IN THIS STEP IS                  100000

          LARGE DISPLACEMENT THEORY WILL BE USED

     LINEAR EXTRAPOLATION WILL BE USED

     CHARACTERISTIC ELEMENT LENGTH     1.935E-04

     DETAILS REGARDING ACTUAL SOLUTION WAVEFRONT REQUESTED

     DETAILED OUTPUT OF DIAGNOSTICS TO DATABASE REQUESTED

     PRINT OF INCREMENT NUMBER, TIME, ETC., TO THE MESSAGE FILE EVERY     1  INCREMENTS

     ELEMENT OPERATIONS WILL BE CARRIED OUT IN PARALLEL USING   8 THREADS ON 1 DOMAIN

     PARALLEL CONTACT TRACKING ENABLED


     COLLECTING MODEL CONSTRAINT INFORMATION FOR OVERCONSTRAINT CHECKS

     COLLECTING STEP CONSTRAINT INFORMATION FOR OVERCONSTRAINT CHECKS


  INCREMENT     1 STARTS. ATTEMPT NUMBER  1, TIME INCREMENT   10.0    
 
     INITIAL ELEMENT LOAD BALANCE
            DOMAIN    1     THREAD    NUMBER OF ELEMENTS
                              1            4064
                              2            4120
                              3            3904
                              4            4280
                              5            4304
                              6            4632
                              7            3835
                              8            4256
 
	SYMMETRIC NEW DIRECT SPARSE SOLVER RUNNING ON
 	1 HOST x 1 MPI RANK PER HOST x 8 THREADS PER RANK
        NUMBER OF EQUATIONS:  126117
        NUMBER OF RHS:        1
        NUMBER OF FLOPS:      3.692e+10
        SOLVER ELAPSED TIME:  247ms

               CONVERGENCE CHECKS FOR EQUILIBRIUM ITERATION     1


 AVERAGE FORCE                      7.061E-02   TIME AVG. FORCE       7.061E-02
 LARGEST SCALED RESIDUAL FORCE      1.834E-03   AT NODE       2643   DOF  3
   INSTANCE: CHD4-M-1                                                                        
  CORRESPONDING RESIDUAL FORCE      1.834E-03
 LARGEST INCREMENT OF DISP.         1.600E-05   AT NODE         15   DOF  2
   INSTANCE: CHD4-M-1                                                                        
 LARGEST CORRECTION TO DISP.        1.600E-05   AT NODE         15   DOF  2
   INSTANCE: CHD4-M-1                                                                        
          FORCE     EQUILIBRIUM NOT ACHIEVED WITHIN TOLERANCE.
 
	SYMMETRIC NEW DIRECT SPARSE SOLVER RUNNING ON
 	1 HOST x 1 MPI RANK PER HOST x 8 THREADS PER RANK
        NUMBER OF EQUATIONS:  126117
        NUMBER OF RHS:        1
        NUMBER OF FLOPS:      3.692e+10
        SOLVER ELAPSED TIME:  253ms

               CONVERGENCE CHECKS FOR EQUILIBRIUM ITERATION     2


 AVERAGE FORCE                      7.061E-02   TIME AVG. FORCE       7.061E-02
 LARGEST SCALED RESIDUAL FORCE     -2.191E-08   AT NODE        417   DOF  2
   INSTANCE: CHD4-M-1                                                                        
  CORRESPONDING RESIDUAL FORCE     -2.191E-08
 LARGEST INCREMENT OF DISP.         1.600E-05   AT NODE         15   DOF  2
   INSTANCE: CHD4-M-1                                                                        
 LARGEST CORRECTION TO DISP.        7.745E-11   AT NODE        469   DOF  2
   INSTANCE: CHD4-M-1                                                                        
          THE FORCE     EQUILIBRIUM EQUATIONS HAVE CONVERGED

 ITERATION SUMMARY FOR THE INCREMENT:   2 TOTAL ITERATIONS, OF WHICH
   0 ARE SEVERE DISCONTINUITY ITERATIONS AND  2 ARE EQUILIBRIUM ITERATIONS.

 TIME INCREMENT COMPLETED   10.0    ,  FRACTION OF STEP COMPLETED  1.000E-02
 STEP TIME COMPLETED        10.0    ,  TOTAL TIME COMPLETED         10.0    


  INCREMENT     2 STARTS. ATTEMPT NUMBER  1, TIME INCREMENT   10.0    
 
	SYMMETRIC NEW DIRECT SPARSE SOLVER RUNNING ON
 	1 HOST x 1 MPI RANK PER HOST x 8 THREADS PER RANK
        NUMBER OF EQUATIONS:  126117
        NUMBER OF RHS:        1
        NUMBER OF FLOPS:      3.692e+10
        SOLVER ELAPSED TIME:  256ms

               CONVERGENCE CHECKS FOR EQUILIBRIUM ITERATION     1


 AVERAGE FORCE                      0.152       TIME AVG. FORCE       0.111    
 LARGEST SCALED RESIDUAL FORCE     -5.038E-08   AT NODE       3352   DOF  2
   INSTANCE: CHD4-M-1                                                                        
  CORRESPONDING RESIDUAL FORCE     -5.038E-08
 LARGEST INCREMENT OF DISP.         1.600E-05   AT NODE         15   DOF  2
   INSTANCE: CHD4-M-1                                                                        
 LARGEST CORRECTION TO DISP.        1.474E-10   AT NODE        469   DOF  2
   INSTANCE: CHD4-M-1                                                                        
          THE FORCE     EQUILIBRIUM EQUATIONS HAVE CONVERGED

 ITERATION SUMMARY FOR THE INCREMENT:   1 TOTAL ITERATIONS, OF WHICH
   0 ARE SEVERE DISCONTINUITY ITERATIONS AND  1 ARE EQUILIBRIUM ITERATIONS.

 TIME INCREMENT COMPLETED   10.0    ,  FRACTION OF STEP COMPLETED  2.000E-02
 STEP TIME COMPLETED        20.0    ,  TOTAL TIME COMPLETED         20.0    


  INCREMENT     3 STARTS. ATTEMPT NUMBER  1, TIME INCREMENT   10.0    
 
	SYMMETRIC NEW DIRECT SPARSE SOLVER RUNNING ON
 	1 HOST x 1 MPI RANK PER HOST x 8 THREADS PER RANK
        NUMBER OF EQUATIONS:  126117
        NUMBER OF RHS:        1
        NUMBER OF FLOPS:      3.692e+10
        SOLVER ELAPSED TIME:  244ms

               CONVERGENCE CHECKS FOR EQUILIBRIUM ITERATION     1


 AVERAGE FORCE                      0.228       TIME AVG. FORCE       0.150    
 LARGEST SCALED RESIDUAL FORCE     -8.961E-08   AT NODE       3346   DOF  2
   INSTANCE: CHD4-M-1                                                                        
  CORRESPONDING RESIDUAL FORCE     -8.961E-08
 LARGEST INCREMENT OF DISP.         1.600E-05   AT NODE         15   DOF  2
   INSTANCE: CHD4-M-1                                                                        
 LARGEST CORRECTION TO DISP.        1.474E-10   AT NODE        469   DOF  2
   INSTANCE: CHD4-M-1                                                                        
          THE FORCE     EQUILIBRIUM EQUATIONS HAVE CONVERGED

 ITERATION SUMMARY FOR THE INCREMENT:   1 TOTAL ITERATIONS, OF WHICH
   0 ARE SEVERE DISCONTINUITY ITERATIONS AND  1 ARE EQUILIBRIUM ITERATIONS.

 TIME INCREMENT COMPLETED   10.0    ,  FRACTION OF STEP COMPLETED  3.000E-02
 STEP TIME COMPLETED        30.0    ,  TOTAL TIME COMPLETED         30.0    


  INCREMENT     4 STARTS. ATTEMPT NUMBER  1, TIME INCREMENT   10.0    
 
	SYMMETRIC NEW DIRECT SPARSE SOLVER RUNNING ON
 	1 HOST x 1 MPI RANK PER HOST x 8 THREADS PER RANK
        NUMBER OF EQUATIONS:  126117
        NUMBER OF RHS:        1
        NUMBER OF FLOPS:      3.692e+10
        SOLVER ELAPSED TIME:  244ms

               CONVERGENCE CHECKS FOR EQUILIBRIUM ITERATION     1


 AVERAGE FORCE                      0.304       TIME AVG. FORCE       0.189    
 LARGEST SCALED RESIDUAL FORCE     -1.288E-07   AT NODE       3352   DOF  2
   INSTANCE: CHD4-M-1                                                                        
  CORRESPONDING RESIDUAL FORCE     -1.288E-07
 LARGEST INCREMENT OF DISP.         1.600E-05   AT NODE         15   DOF  2
   INSTANCE: CHD4-M-1                                                                        
 LARGEST CORRECTION TO DISP.        1.474E-10   AT NODE        469   DOF  2
   INSTANCE: CHD4-M-1                                                                        
          THE FORCE     EQUILIBRIUM EQUATIONS HAVE CONVERGED

 ITERATION SUMMARY FOR THE INCREMENT:   1 TOTAL ITERATIONS, OF WHICH
   0 ARE SEVERE DISCONTINUITY ITERATIONS AND  1 ARE EQUILIBRIUM ITERATIONS.

 TIME INCREMENT COMPLETED   10.0    ,  FRACTION OF STEP COMPLETED  4.000E-02
 STEP TIME COMPLETED        40.0    ,  TOTAL TIME COMPLETED         40.0    


  INCREMENT     5 STARTS. ATTEMPT NUMBER  1, TIME INCREMENT   10.0    
 
	SYMMETRIC NEW DIRECT SPARSE SOLVER RUNNING ON
 	1 HOST x 1 MPI RANK PER HOST x 8 THREADS PER RANK
        NUMBER OF EQUATIONS:  126117
        NUMBER OF RHS:        1
        NUMBER OF FLOPS:      3.692e+10
        SOLVER ELAPSED TIME:  253ms

               CONVERGENCE CHECKS FOR EQUILIBRIUM ITERATION     1


 AVERAGE FORCE                      0.381       TIME AVG. FORCE       0.227    
 LARGEST SCALED RESIDUAL FORCE     -1.680E-07   AT NODE       3352   DOF  2
   INSTANCE: CHD4-M-1                                                                        
  CORRESPONDING RESIDUAL FORCE     -1.680E-07
 LARGEST INCREMENT OF DISP.         1.600E-05   AT NODE         15   DOF  2
   INSTANCE: CHD4-M-1                                                                        
 LARGEST CORRECTION TO DISP.        1.474E-10   AT NODE        469   DOF  2
   INSTANCE: CHD4-M-1                                                                        
          THE FORCE     EQUILIBRIUM EQUATIONS HAVE CONVERGED

 ITERATION SUMMARY FOR THE INCREMENT:   1 TOTAL ITERATIONS, OF WHICH
   0 ARE SEVERE DISCONTINUITY ITERATIONS AND  1 ARE EQUILIBRIUM ITERATIONS.

 TIME INCREMENT COMPLETED   10.0    ,  FRACTION OF STEP COMPLETED  5.000E-02
 STEP TIME COMPLETED        50.0    ,  TOTAL TIME COMPLETED         50.0    


  INCREMENT     6 STARTS. ATTEMPT NUMBER  1, TIME INCREMENT   10.0    
 
	SYMMETRIC NEW DIRECT SPARSE SOLVER RUNNING ON
 	1 HOST x 1 MPI RANK PER HOST x 8 THREADS PER RANK
        NUMBER OF EQUATIONS:  126117
        NUMBER OF RHS:        1
        NUMBER OF FLOPS:      3.692e+10
        SOLVER ELAPSED TIME:  245ms

               CONVERGENCE CHECKS FOR EQUILIBRIUM ITERATION     1


 AVERAGE FORCE                      0.457       TIME AVG. FORCE       0.266    
 LARGEST SCALED RESIDUAL FORCE     -2.072E-07   AT NODE       3352   DOF  2
   INSTANCE: CHD4-M-1                                                                        
  CORRESPONDING RESIDUAL FORCE     -2.072E-07
 LARGEST INCREMENT OF DISP.         1.600E-05   AT NODE         15   DOF  2
   INSTANCE: CHD4-M-1                                                                        
 LARGEST CORRECTION TO DISP.        1.474E-10   AT NODE        469   DOF  2
   INSTANCE: CHD4-M-1                                                                        
          THE FORCE     EQUILIBRIUM EQUATIONS HAVE CONVERGED

 ITERATION SUMMARY FOR THE INCREMENT:   1 TOTAL ITERATIONS, OF WHICH
   0 ARE SEVERE DISCONTINUITY ITERATIONS AND  1 ARE EQUILIBRIUM ITERATIONS.

 TIME INCREMENT COMPLETED   10.0    ,  FRACTION OF STEP COMPLETED  6.000E-02
 STEP TIME COMPLETED        60.0    ,  TOTAL TIME COMPLETED         60.0    


  INCREMENT     7 STARTS. ATTEMPT NUMBER  1, TIME INCREMENT   10.0    
 
	SYMMETRIC NEW DIRECT SPARSE SOLVER RUNNING ON
 	1 HOST x 1 MPI RANK PER HOST x 8 THREADS PER RANK
        NUMBER OF EQUATIONS:  126117
        NUMBER OF RHS:        1
        NUMBER OF FLOPS:      3.692e+10
        SOLVER ELAPSED TIME:  398ms

               CONVERGENCE CHECKS FOR EQUILIBRIUM ITERATION     1


 AVERAGE FORCE                      0.533       TIME AVG. FORCE       0.304    
 LARGEST SCALED RESIDUAL FORCE     -2.463E-07   AT NODE       3352   DOF  2
   INSTANCE: CHD4-M-1                                                                        
  CORRESPONDING RESIDUAL FORCE     -2.463E-07
 LARGEST INCREMENT OF DISP.         1.600E-05   AT NODE         15   DOF  2
   INSTANCE: CHD4-M-1                                                                        
 LARGEST CORRECTION TO DISP.        1.474E-10   AT NODE        469   DOF  2
   INSTANCE: CHD4-M-1                                                                        
          THE FORCE     EQUILIBRIUM EQUATIONS HAVE CONVERGED

 ITERATION SUMMARY FOR THE INCREMENT:   1 TOTAL ITERATIONS, OF WHICH
   0 ARE SEVERE DISCONTINUITY ITERATIONS AND  1 ARE EQUILIBRIUM ITERATIONS.

 TIME INCREMENT COMPLETED   10.0    ,  FRACTION OF STEP COMPLETED  7.000E-02
 STEP TIME COMPLETED        70.0    ,  TOTAL TIME COMPLETED         70.0    


  INCREMENT     8 STARTS. ATTEMPT NUMBER  1, TIME INCREMENT   10.0    
 
	SYMMETRIC NEW DIRECT SPARSE SOLVER RUNNING ON
 	1 HOST x 1 MPI RANK PER HOST x 8 THREADS PER RANK
        NUMBER OF EQUATIONS:  126117
        NUMBER OF RHS:        1
        NUMBER OF FLOPS:      3.692e+10
        SOLVER ELAPSED TIME:  400ms

               CONVERGENCE CHECKS FOR EQUILIBRIUM ITERATION     1


 AVERAGE FORCE                      0.609       TIME AVG. FORCE       0.342    
 LARGEST SCALED RESIDUAL FORCE     -2.855E-07   AT NODE       3352   DOF  2
   INSTANCE: CHD4-M-1                                                                        
  CORRESPONDING RESIDUAL FORCE     -2.855E-07
 LARGEST INCREMENT OF DISP.         1.600E-05   AT NODE         15   DOF  2
   INSTANCE: CHD4-M-1                                                                        
 LARGEST CORRECTION TO DISP.        1.474E-10   AT NODE        469   DOF  2
   INSTANCE: CHD4-M-1                                                                        
          THE FORCE     EQUILIBRIUM EQUATIONS HAVE CONVERGED

 ITERATION SUMMARY FOR THE INCREMENT:   1 TOTAL ITERATIONS, OF WHICH
   0 ARE SEVERE DISCONTINUITY ITERATIONS AND  1 ARE EQUILIBRIUM ITERATIONS.

 TIME INCREMENT COMPLETED   10.0    ,  FRACTION OF STEP COMPLETED  8.000E-02
 STEP TIME COMPLETED        80.0    ,  TOTAL TIME COMPLETED         80.0    


  INCREMENT     9 STARTS. ATTEMPT NUMBER  1, TIME INCREMENT   10.0    
 
	SYMMETRIC NEW DIRECT SPARSE SOLVER RUNNING ON
 	1 HOST x 1 MPI RANK PER HOST x 8 THREADS PER RANK
        NUMBER OF EQUATIONS:  126117
        NUMBER OF RHS:        1
        NUMBER OF FLOPS:      3.692e+10
        SOLVER ELAPSED TIME:  394ms

               CONVERGENCE CHECKS FOR EQUILIBRIUM ITERATION     1


 AVERAGE FORCE                      0.685       TIME AVG. FORCE       0.380    
 LARGEST SCALED RESIDUAL FORCE     -3.246E-07   AT NODE       3352   DOF  2
   INSTANCE: CHD4-M-1                                                                        
  CORRESPONDING RESIDUAL FORCE     -3.246E-07
 LARGEST INCREMENT OF DISP.         1.600E-05   AT NODE         15   DOF  2
   INSTANCE: CHD4-M-1                                                                        
 LARGEST CORRECTION TO DISP.        1.473E-10   AT NODE        469   DOF  2
   INSTANCE: CHD4-M-1                                                                        
          THE FORCE     EQUILIBRIUM EQUATIONS HAVE CONVERGED

 ITERATION SUMMARY FOR THE INCREMENT:   1 TOTAL ITERATIONS, OF WHICH
   0 ARE SEVERE DISCONTINUITY ITERATIONS AND  1 ARE EQUILIBRIUM ITERATIONS.

 TIME INCREMENT COMPLETED   10.0    ,  FRACTION OF STEP COMPLETED  9.000E-02
 STEP TIME COMPLETED        90.0    ,  TOTAL TIME COMPLETED         90.0    


  INCREMENT    10 STARTS. ATTEMPT NUMBER  1, TIME INCREMENT   10.0    
 
	SYMMETRIC NEW DIRECT SPARSE SOLVER RUNNING ON
 	1 HOST x 1 MPI RANK PER HOST x 8 THREADS PER RANK
        NUMBER OF EQUATIONS:  126117
        NUMBER OF RHS:        1
        NUMBER OF FLOPS:      3.692e+10
        SOLVER ELAPSED TIME:  406ms

               CONVERGENCE CHECKS FOR EQUILIBRIUM ITERATION     1


 AVERAGE FORCE                      0.761       TIME AVG. FORCE       0.418    
 LARGEST SCALED RESIDUAL FORCE     -3.637E-07   AT NODE       3352   DOF  2
   INSTANCE: CHD4-M-1                                                                        
  CORRESPONDING RESIDUAL FORCE     -3.637E-07
 LARGEST INCREMENT OF DISP.         1.600E-05   AT NODE         15   DOF  2
   INSTANCE: CHD4-M-1                                                                        
 LARGEST CORRECTION TO DISP.        1.473E-10   AT NODE        469   DOF  2
   INSTANCE: CHD4-M-1                                                                        
          THE FORCE     EQUILIBRIUM EQUATIONS HAVE CONVERGED

 ITERATION SUMMARY FOR THE INCREMENT:   1 TOTAL ITERATIONS, OF WHICH
   0 ARE SEVERE DISCONTINUITY ITERATIONS AND  1 ARE EQUILIBRIUM ITERATIONS.

 TIME INCREMENT COMPLETED   10.0    ,  FRACTION OF STEP COMPLETED  0.100    
 STEP TIME COMPLETED        100.    ,  TOTAL TIME COMPLETED         100.    


  INCREMENT    11 STARTS. ATTEMPT NUMBER  1, TIME INCREMENT   10.0    
 
	SYMMETRIC NEW DIRECT SPARSE SOLVER RUNNING ON
 	1 HOST x 1 MPI RANK PER HOST x 8 THREADS PER RANK
        NUMBER OF EQUATIONS:  126117
        NUMBER OF RHS:        1
        NUMBER OF FLOPS:      3.692e+10
        SOLVER ELAPSED TIME:  403ms

               CONVERGENCE CHECKS FOR EQUILIBRIUM ITERATION     1


 AVERAGE FORCE                      0.837       TIME AVG. FORCE       0.456    
 LARGEST SCALED RESIDUAL FORCE     -4.028E-07   AT NODE       3352   DOF  2
   INSTANCE: CHD4-M-1                                                                        
  CORRESPONDING RESIDUAL FORCE     -4.028E-07
 LARGEST INCREMENT OF DISP.         1.600E-05   AT NODE         15   DOF  2
   INSTANCE: CHD4-M-1                                                                        
 LARGEST CORRECTION TO DISP.        1.473E-10   AT NODE        469   DOF  2
   INSTANCE: CHD4-M-1                                                                        
          THE FORCE     EQUILIBRIUM EQUATIONS HAVE CONVERGED

 ITERATION SUMMARY FOR THE INCREMENT:   1 TOTAL ITERATIONS, OF WHICH
   0 ARE SEVERE DISCONTINUITY ITERATIONS AND  1 ARE EQUILIBRIUM ITERATIONS.

 TIME INCREMENT COMPLETED   10.0    ,  FRACTION OF STEP COMPLETED  0.110    
 STEP TIME COMPLETED        110.    ,  TOTAL TIME COMPLETED         110.    


  INCREMENT    12 STARTS. ATTEMPT NUMBER  1, TIME INCREMENT   10.0    
 
	SYMMETRIC NEW DIRECT SPARSE SOLVER RUNNING ON
 	1 HOST x 1 MPI RANK PER HOST x 8 THREADS PER RANK
        NUMBER OF EQUATIONS:  126117
        NUMBER OF RHS:        1
        NUMBER OF FLOPS:      3.692e+10
        SOLVER ELAPSED TIME:  400ms

               CONVERGENCE CHECKS FOR EQUILIBRIUM ITERATION     1


 AVERAGE FORCE                      0.913       TIME AVG. FORCE       0.494    
 LARGEST SCALED RESIDUAL FORCE     -4.418E-07   AT NODE       3352   DOF  2
   INSTANCE: CHD4-M-1                                                                        
  CORRESPONDING RESIDUAL FORCE     -4.418E-07
 LARGEST INCREMENT OF DISP.         1.600E-05   AT NODE         15   DOF  2
   INSTANCE: CHD4-M-1                                                                        
 LARGEST CORRECTION TO DISP.        1.473E-10   AT NODE        469   DOF  2
   INSTANCE: CHD4-M-1                                                                        
          THE FORCE     EQUILIBRIUM EQUATIONS HAVE CONVERGED

 ITERATION SUMMARY FOR THE INCREMENT:   1 TOTAL ITERATIONS, OF WHICH
   0 ARE SEVERE DISCONTINUITY ITERATIONS AND  1 ARE EQUILIBRIUM ITERATIONS.

 TIME INCREMENT COMPLETED   10.0    ,  FRACTION OF STEP COMPLETED  0.120    
 STEP TIME COMPLETED        120.    ,  TOTAL TIME COMPLETED         120.    


  INCREMENT    13 STARTS. ATTEMPT NUMBER  1, TIME INCREMENT   10.0    
 
	SYMMETRIC NEW DIRECT SPARSE SOLVER RUNNING ON
 	1 HOST x 1 MPI RANK PER HOST x 8 THREADS PER RANK
        NUMBER OF EQUATIONS:  126117
        NUMBER OF RHS:        1
        NUMBER OF FLOPS:      3.692e+10
        SOLVER ELAPSED TIME:  404ms

               CONVERGENCE CHECKS FOR EQUILIBRIUM ITERATION     1


 AVERAGE FORCE                      0.989       TIME AVG. FORCE       0.532    
 LARGEST SCALED RESIDUAL FORCE     -4.809E-07   AT NODE       3352   DOF  2
   INSTANCE: CHD4-M-1                                                                        
  CORRESPONDING RESIDUAL FORCE     -4.809E-07
 LARGEST INCREMENT OF DISP.         1.600E-05   AT NODE         15   DOF  2
   INSTANCE: CHD4-M-1                                                                        
 LARGEST CORRECTION TO DISP.        1.473E-10   AT NODE        469   DOF  2
   INSTANCE: CHD4-M-1                                                                        
          THE FORCE     EQUILIBRIUM EQUATIONS HAVE CONVERGED

 ITERATION SUMMARY FOR THE INCREMENT:   1 TOTAL ITERATIONS, OF WHICH
   0 ARE SEVERE DISCONTINUITY ITERATIONS AND  1 ARE EQUILIBRIUM ITERATIONS.

 TIME INCREMENT COMPLETED   10.0    ,  FRACTION OF STEP COMPLETED  0.130    
 STEP TIME COMPLETED        130.    ,  TOTAL TIME COMPLETED         130.    


  INCREMENT    14 STARTS. ATTEMPT NUMBER  1, TIME INCREMENT   10.0    
 
	SYMMETRIC NEW DIRECT SPARSE SOLVER RUNNING ON
 	1 HOST x 1 MPI RANK PER HOST x 8 THREADS PER RANK
        NUMBER OF EQUATIONS:  126117
        NUMBER OF RHS:        1
        NUMBER OF FLOPS:      3.692e+10
        SOLVER ELAPSED TIME:  395ms

               CONVERGENCE CHECKS FOR EQUILIBRIUM ITERATION     1


 AVERAGE FORCE                       1.07       TIME AVG. FORCE       0.570    
 LARGEST SCALED RESIDUAL FORCE     -5.199E-07   AT NODE       3352   DOF  2
   INSTANCE: CHD4-M-1                                                                        
  CORRESPONDING RESIDUAL FORCE     -5.199E-07
 LARGEST INCREMENT OF DISP.         1.600E-05   AT NODE         15   DOF  2
   INSTANCE: CHD4-M-1                                                                        
 LARGEST CORRECTION TO DISP.        1.473E-10   AT NODE        469   DOF  2
   INSTANCE: CHD4-M-1                                                                        
          THE FORCE     EQUILIBRIUM EQUATIONS HAVE CONVERGED

 ITERATION SUMMARY FOR THE INCREMENT:   1 TOTAL ITERATIONS, OF WHICH
   0 ARE SEVERE DISCONTINUITY ITERATIONS AND  1 ARE EQUILIBRIUM ITERATIONS.

 TIME INCREMENT COMPLETED   10.0    ,  FRACTION OF STEP COMPLETED  0.140    
 STEP TIME COMPLETED        140.    ,  TOTAL TIME COMPLETED         140.    


  INCREMENT    15 STARTS. ATTEMPT NUMBER  1, TIME INCREMENT   10.0    
 
	SYMMETRIC NEW DIRECT SPARSE SOLVER RUNNING ON
 	1 HOST x 1 MPI RANK PER HOST x 8 THREADS PER RANK
        NUMBER OF EQUATIONS:  126117
        NUMBER OF RHS:        1
        NUMBER OF FLOPS:      3.692e+10
        SOLVER ELAPSED TIME:  401ms

               CONVERGENCE CHECKS FOR EQUILIBRIUM ITERATION     1


 AVERAGE FORCE                       1.14       TIME AVG. FORCE       0.608    
 LARGEST SCALED RESIDUAL FORCE     -5.589E-07   AT NODE       3352   DOF  2
   INSTANCE: CHD4-M-1                                                                        
  CORRESPONDING RESIDUAL FORCE     -5.589E-07
 LARGEST INCREMENT OF DISP.         1.600E-05   AT NODE         15   DOF  2
   INSTANCE: CHD4-M-1                                                                        
 LARGEST CORRECTION TO DISP.        1.473E-10   AT NODE        469   DOF  2
   INSTANCE: CHD4-M-1                                                                        
          THE FORCE     EQUILIBRIUM EQUATIONS HAVE CONVERGED

 ITERATION SUMMARY FOR THE INCREMENT:   1 TOTAL ITERATIONS, OF WHICH
   0 ARE SEVERE DISCONTINUITY ITERATIONS AND  1 ARE EQUILIBRIUM ITERATIONS.

 TIME INCREMENT COMPLETED   10.0    ,  FRACTION OF STEP COMPLETED  0.150    
 STEP TIME COMPLETED        150.    ,  TOTAL TIME COMPLETED         150.    


  INCREMENT    16 STARTS. ATTEMPT NUMBER  1, TIME INCREMENT   10.0    
 
	SYMMETRIC NEW DIRECT SPARSE SOLVER RUNNING ON
 	1 HOST x 1 MPI RANK PER HOST x 8 THREADS PER RANK
        NUMBER OF EQUATIONS:  126117
        NUMBER OF RHS:        1
        NUMBER OF FLOPS:      3.692e+10
        SOLVER ELAPSED TIME:  401ms

               CONVERGENCE CHECKS FOR EQUILIBRIUM ITERATION     1


 AVERAGE FORCE                       1.22       TIME AVG. FORCE       0.646    
 LARGEST SCALED RESIDUAL FORCE     -5.979E-07   AT NODE       3352   DOF  2
   INSTANCE: CHD4-M-1                                                                        
  CORRESPONDING RESIDUAL FORCE     -5.979E-07
 LARGEST INCREMENT OF DISP.         1.600E-05   AT NODE         15   DOF  2
   INSTANCE: CHD4-M-1                                                                        
 LARGEST CORRECTION TO DISP.        1.472E-10   AT NODE        469   DOF  2
   INSTANCE: CHD4-M-1                                                                        
          THE FORCE     EQUILIBRIUM EQUATIONS HAVE CONVERGED

 ITERATION SUMMARY FOR THE INCREMENT:   1 TOTAL ITERATIONS, OF WHICH
   0 ARE SEVERE DISCONTINUITY ITERATIONS AND  1 ARE EQUILIBRIUM ITERATIONS.

 TIME INCREMENT COMPLETED   10.0    ,  FRACTION OF STEP COMPLETED  0.160    
 STEP TIME COMPLETED        160.    ,  TOTAL TIME COMPLETED         160.    


  INCREMENT    17 STARTS. ATTEMPT NUMBER  1, TIME INCREMENT   10.0    
 
	SYMMETRIC NEW DIRECT SPARSE SOLVER RUNNING ON
 	1 HOST x 1 MPI RANK PER HOST x 8 THREADS PER RANK
        NUMBER OF EQUATIONS:  126117
        NUMBER OF RHS:        1
        NUMBER OF FLOPS:      3.692e+10
        SOLVER ELAPSED TIME:  401ms

               CONVERGENCE CHECKS FOR EQUILIBRIUM ITERATION     1


 AVERAGE FORCE                       1.29       TIME AVG. FORCE       0.684    
 LARGEST SCALED RESIDUAL FORCE     -6.369E-07   AT NODE       3352   DOF  2
   INSTANCE: CHD4-M-1                                                                        
  CORRESPONDING RESIDUAL FORCE     -6.369E-07
 LARGEST INCREMENT OF DISP.         1.600E-05   AT NODE         15   DOF  2
   INSTANCE: CHD4-M-1                                                                        
 LARGEST CORRECTION TO DISP.        1.472E-10   AT NODE        469   DOF  2
   INSTANCE: CHD4-M-1                                                                        
          THE FORCE     EQUILIBRIUM EQUATIONS HAVE CONVERGED

 ITERATION SUMMARY FOR THE INCREMENT:   1 TOTAL ITERATIONS, OF WHICH
   0 ARE SEVERE DISCONTINUITY ITERATIONS AND  1 ARE EQUILIBRIUM ITERATIONS.

 TIME INCREMENT COMPLETED   10.0    ,  FRACTION OF STEP COMPLETED  0.170    
 STEP TIME COMPLETED        170.    ,  TOTAL TIME COMPLETED         170.    


  INCREMENT    18 STARTS. ATTEMPT NUMBER  1, TIME INCREMENT   10.0    
 
	SYMMETRIC NEW DIRECT SPARSE SOLVER RUNNING ON
 	1 HOST x 1 MPI RANK PER HOST x 8 THREADS PER RANK
        NUMBER OF EQUATIONS:  126117
        NUMBER OF RHS:        1
        NUMBER OF FLOPS:      3.692e+10
        SOLVER ELAPSED TIME:  403ms

               CONVERGENCE CHECKS FOR EQUILIBRIUM ITERATION     1


 AVERAGE FORCE                       1.37       TIME AVG. FORCE       0.723    
 LARGEST SCALED RESIDUAL FORCE     -7.798E-04   AT NODE       8856   DOF  2
   INSTANCE: CHD4-M-1                                                                        
  CORRESPONDING RESIDUAL FORCE     -7.798E-04
 LARGEST INCREMENT OF DISP.         1.600E-05   AT NODE         15   DOF  2
   INSTANCE: CHD4-M-1                                                                        
 LARGEST CORRECTION TO DISP.        3.397E-09   AT NODE       1534   DOF  2
   INSTANCE: CHD4-M-1                                                                        
          THE FORCE     EQUILIBRIUM EQUATIONS HAVE CONVERGED

 ITERATION SUMMARY FOR THE INCREMENT:   1 TOTAL ITERATIONS, OF WHICH
   0 ARE SEVERE DISCONTINUITY ITERATIONS AND  1 ARE EQUILIBRIUM ITERATIONS.

 TIME INCREMENT COMPLETED   10.0    ,  FRACTION OF STEP COMPLETED  0.180    
 STEP TIME COMPLETED        180.    ,  TOTAL TIME COMPLETED         180.    


  INCREMENT    19 STARTS. ATTEMPT NUMBER  1, TIME INCREMENT   10.0    
 
	SYMMETRIC NEW DIRECT SPARSE SOLVER RUNNING ON
 	1 HOST x 1 MPI RANK PER HOST x 8 THREADS PER RANK
        NUMBER OF EQUATIONS:  126117
        NUMBER OF RHS:        1
        NUMBER OF FLOPS:      3.692e+10
        SOLVER ELAPSED TIME:  377ms

               CONVERGENCE CHECKS FOR EQUILIBRIUM ITERATION     1


 AVERAGE FORCE                       1.44       TIME AVG. FORCE       0.761    
 LARGEST SCALED RESIDUAL FORCE      8.371E-03   AT NODE      23166   DOF  2
   INSTANCE: CHD4-M-1                                                                        
  CORRESPONDING RESIDUAL FORCE      8.371E-03
 LARGEST INCREMENT OF DISP.         1.600E-05   AT NODE         15   DOF  2
   INSTANCE: CHD4-M-1                                                                        
 LARGEST CORRECTION TO DISP.       -1.386E-08   AT NODE       2124   DOF  3
   INSTANCE: CHD4-M-1                                                                        
          FORCE     EQUILIBRIUM NOT ACHIEVED WITHIN TOLERANCE.
 
	SYMMETRIC NEW DIRECT SPARSE SOLVER RUNNING ON
 	1 HOST x 1 MPI RANK PER HOST x 8 THREADS PER RANK
        NUMBER OF EQUATIONS:  126117
        NUMBER OF RHS:        1
        NUMBER OF FLOPS:      3.692e+10
        SOLVER ELAPSED TIME:  396ms

               CONVERGENCE CHECKS FOR EQUILIBRIUM ITERATION     2


 AVERAGE FORCE                       1.44       TIME AVG. FORCE       0.761    
 LARGEST SCALED RESIDUAL FORCE     -1.443E-04   AT NODE        942   DOF  2
   INSTANCE: CHD4-M-1                                                                        
  CORRESPONDING RESIDUAL FORCE     -1.443E-04
 LARGEST INCREMENT OF DISP.         1.600E-05   AT NODE         15   DOF  2
   INSTANCE: CHD4-M-1                                                                        
 LARGEST CORRECTION TO DISP.       -3.898E-10   AT NODE       1123   DOF  2
   INSTANCE: CHD4-M-1                                                                        
          THE FORCE     EQUILIBRIUM EQUATIONS HAVE CONVERGED

 ITERATION SUMMARY FOR THE INCREMENT:   2 TOTAL ITERATIONS, OF WHICH
   0 ARE SEVERE DISCONTINUITY ITERATIONS AND  2 ARE EQUILIBRIUM ITERATIONS.

 TIME INCREMENT COMPLETED   10.0    ,  FRACTION OF STEP COMPLETED  0.190    
 STEP TIME COMPLETED        190.    ,  TOTAL TIME COMPLETED         190.    


  INCREMENT    20 STARTS. ATTEMPT NUMBER  1, TIME INCREMENT   10.0    
 
	SYMMETRIC NEW DIRECT SPARSE SOLVER RUNNING ON
 	1 HOST x 1 MPI RANK PER HOST x 8 THREADS PER RANK
        NUMBER OF EQUATIONS:  126117
        NUMBER OF RHS:        1
        NUMBER OF FLOPS:      3.692e+10
        SOLVER ELAPSED TIME:  402ms

               CONVERGENCE CHECKS FOR EQUILIBRIUM ITERATION     1


 AVERAGE FORCE                       1.52       TIME AVG. FORCE       0.799    
 LARGEST SCALED RESIDUAL FORCE      2.004E-03   AT NODE       1386   DOF  2
   INSTANCE: CHD4-M-1                                                                        
  CORRESPONDING RESIDUAL FORCE      2.004E-03
 LARGEST INCREMENT OF DISP.         1.600E-05   AT NODE         15   DOF  2
   INSTANCE: CHD4-M-1                                                                        
 LARGEST CORRECTION TO DISP.        1.363E-08   AT NODE      10503   DOF  2
   INSTANCE: CHD4-M-1                                                                        
          THE FORCE     EQUILIBRIUM EQUATIONS HAVE CONVERGED

 ITERATION SUMMARY FOR THE INCREMENT:   1 TOTAL ITERATIONS, OF WHICH
   0 ARE SEVERE DISCONTINUITY ITERATIONS AND  1 ARE EQUILIBRIUM ITERATIONS.

 TIME INCREMENT COMPLETED   10.0    ,  FRACTION OF STEP COMPLETED  0.200    
 STEP TIME COMPLETED        200.    ,  TOTAL TIME COMPLETED         200.    


  INCREMENT    21 STARTS. ATTEMPT NUMBER  1, TIME INCREMENT   10.0    
 
	SYMMETRIC NEW DIRECT SPARSE SOLVER RUNNING ON
 	1 HOST x 1 MPI RANK PER HOST x 8 THREADS PER RANK
        NUMBER OF EQUATIONS:  126117
        NUMBER OF RHS:        1
        NUMBER OF FLOPS:      3.692e+10
        SOLVER ELAPSED TIME:  422ms

               CONVERGENCE CHECKS FOR EQUILIBRIUM ITERATION     1


 AVERAGE FORCE                       1.60       TIME AVG. FORCE       0.837    
 LARGEST SCALED RESIDUAL FORCE     -2.653E-03   AT NODE       8832   DOF  2
   INSTANCE: CHD4-M-1                                                                        
  CORRESPONDING RESIDUAL FORCE     -2.653E-03
 LARGEST INCREMENT OF DISP.         1.600E-05   AT NODE         15   DOF  2
   INSTANCE: CHD4-M-1                                                                        
 LARGEST CORRECTION TO DISP.        1.148E-08   AT NODE      17748   DOF  2
   INSTANCE: CHD4-M-1                                                                        
          THE FORCE     EQUILIBRIUM EQUATIONS HAVE CONVERGED

 ITERATION SUMMARY FOR THE INCREMENT:   1 TOTAL ITERATIONS, OF WHICH
   0 ARE SEVERE DISCONTINUITY ITERATIONS AND  1 ARE EQUILIBRIUM ITERATIONS.

 TIME INCREMENT COMPLETED   10.0    ,  FRACTION OF STEP COMPLETED  0.210    
 STEP TIME COMPLETED        210.    ,  TOTAL TIME COMPLETED         210.    


  INCREMENT    22 STARTS. ATTEMPT NUMBER  1, TIME INCREMENT   10.0    
 
	SYMMETRIC NEW DIRECT SPARSE SOLVER RUNNING ON
 	1 HOST x 1 MPI RANK PER HOST x 8 THREADS PER RANK
        NUMBER OF EQUATIONS:  126117
        NUMBER OF RHS:        1
        NUMBER OF FLOPS:      3.692e+10
        SOLVER ELAPSED TIME:  402ms

               CONVERGENCE CHECKS FOR EQUILIBRIUM ITERATION     1


 AVERAGE FORCE                       1.67       TIME AVG. FORCE       0.875    
 LARGEST SCALED RESIDUAL FORCE      3.604E-03   AT NODE      23087   DOF  2
   INSTANCE: CHD4-M-1                                                                        
  CORRESPONDING RESIDUAL FORCE      3.604E-03
 LARGEST INCREMENT OF DISP.         1.600E-05   AT NODE         15   DOF  2
   INSTANCE: CHD4-M-1                                                                        
 LARGEST CORRECTION TO DISP.        1.488E-08   AT NODE      10554   DOF  2
   INSTANCE: CHD4-M-1                                                                        
          THE FORCE     EQUILIBRIUM EQUATIONS HAVE CONVERGED

 ITERATION SUMMARY FOR THE INCREMENT:   1 TOTAL ITERATIONS, OF WHICH
   0 ARE SEVERE DISCONTINUITY ITERATIONS AND  1 ARE EQUILIBRIUM ITERATIONS.

 TIME INCREMENT COMPLETED   10.0    ,  FRACTION OF STEP COMPLETED  0.220    
 STEP TIME COMPLETED        220.    ,  TOTAL TIME COMPLETED         220.    


  INCREMENT    23 STARTS. ATTEMPT NUMBER  1, TIME INCREMENT   10.0    
 
	SYMMETRIC NEW DIRECT SPARSE SOLVER RUNNING ON
 	1 HOST x 1 MPI RANK PER HOST x 8 THREADS PER RANK
        NUMBER OF EQUATIONS:  126117
        NUMBER OF RHS:        1
        NUMBER OF FLOPS:      3.692e+10
        SOLVER ELAPSED TIME:  401ms

               CONVERGENCE CHECKS FOR EQUILIBRIUM ITERATION     1


 AVERAGE FORCE                       1.75       TIME AVG. FORCE       0.913    
 LARGEST SCALED RESIDUAL FORCE      5.086E-03   AT NODE      25898   DOF  2
   INSTANCE: CHD4-M-1                                                                        
  CORRESPONDING RESIDUAL FORCE      5.086E-03
 LARGEST INCREMENT OF DISP.         1.600E-05   AT NODE         15   DOF  2
   INSTANCE: CHD4-M-1                                                                        
 LARGEST CORRECTION TO DISP.        1.607E-08   AT NODE       1531   DOF  2
   INSTANCE: CHD4-M-1                                                                        
          FORCE     EQUILIBRIUM NOT ACHIEVED WITHIN TOLERANCE.
 
	SYMMETRIC NEW DIRECT SPARSE SOLVER RUNNING ON
 	1 HOST x 1 MPI RANK PER HOST x 8 THREADS PER RANK
        NUMBER OF EQUATIONS:  126117
        NUMBER OF RHS:        1
        NUMBER OF FLOPS:      3.692e+10
        SOLVER ELAPSED TIME:  401ms

               CONVERGENCE CHECKS FOR EQUILIBRIUM ITERATION     2


 AVERAGE FORCE                       1.75       TIME AVG. FORCE       0.913    
 LARGEST SCALED RESIDUAL FORCE      1.265E-05   AT NODE      25859   DOF  2
   INSTANCE: CHD4-M-1                                                                        
  CORRESPONDING RESIDUAL FORCE      1.265E-05
 LARGEST INCREMENT OF DISP.         1.600E-05   AT NODE         15   DOF  2
   INSTANCE: CHD4-M-1                                                                        
 LARGEST CORRECTION TO DISP.       -1.939E-10   AT NODE      25859   DOF  2
   INSTANCE: CHD4-M-1                                                                        
          THE FORCE     EQUILIBRIUM EQUATIONS HAVE CONVERGED

 ITERATION SUMMARY FOR THE INCREMENT:   2 TOTAL ITERATIONS, OF WHICH
   0 ARE SEVERE DISCONTINUITY ITERATIONS AND  2 ARE EQUILIBRIUM ITERATIONS.

 TIME INCREMENT COMPLETED   10.0    ,  FRACTION OF STEP COMPLETED  0.230    
 STEP TIME COMPLETED        230.    ,  TOTAL TIME COMPLETED         230.    


  INCREMENT    24 STARTS. ATTEMPT NUMBER  1, TIME INCREMENT   10.0    
 
	SYMMETRIC NEW DIRECT SPARSE SOLVER RUNNING ON
 	1 HOST x 1 MPI RANK PER HOST x 8 THREADS PER RANK
        NUMBER OF EQUATIONS:  126117
        NUMBER OF RHS:        1
        NUMBER OF FLOPS:      3.692e+10
        SOLVER ELAPSED TIME:  395ms

               CONVERGENCE CHECKS FOR EQUILIBRIUM ITERATION     1


 AVERAGE FORCE                       1.82       TIME AVG. FORCE       0.951    
 LARGEST SCALED RESIDUAL FORCE      8.815E-03   AT NODE      40114   DOF  2
   INSTANCE: CHD4-M-1                                                                        
  CORRESPONDING RESIDUAL FORCE      8.815E-03
 LARGEST INCREMENT OF DISP.         1.600E-05   AT NODE         15   DOF  2
   INSTANCE: CHD4-M-1                                                                        
 LARGEST CORRECTION TO DISP.        1.742E-08   AT NODE      10557   DOF  2
   INSTANCE: CHD4-M-1                                                                        
          FORCE     EQUILIBRIUM NOT ACHIEVED WITHIN TOLERANCE.
 
	SYMMETRIC NEW DIRECT SPARSE SOLVER RUNNING ON
 	1 HOST x 1 MPI RANK PER HOST x 8 THREADS PER RANK
        NUMBER OF EQUATIONS:  126117
        NUMBER OF RHS:        1
        NUMBER OF FLOPS:      3.692e+10
        SOLVER ELAPSED TIME:  393ms

               CONVERGENCE CHECKS FOR EQUILIBRIUM ITERATION     2


 AVERAGE FORCE                       1.82       TIME AVG. FORCE       0.951    
 LARGEST SCALED RESIDUAL FORCE     -1.288E-04   AT NODE      24534   DOF  2
   INSTANCE: CHD4-M-1                                                                        
  CORRESPONDING RESIDUAL FORCE     -1.288E-04
 LARGEST INCREMENT OF DISP.         1.600E-05   AT NODE         15   DOF  2
   INSTANCE: CHD4-M-1                                                                        
 LARGEST CORRECTION TO DISP.        3.368E-10   AT NODE      40114   DOF  2
   INSTANCE: CHD4-M-1                                                                        
          THE FORCE     EQUILIBRIUM EQUATIONS HAVE CONVERGED

 ITERATION SUMMARY FOR THE INCREMENT:   2 TOTAL ITERATIONS, OF WHICH
   0 ARE SEVERE DISCONTINUITY ITERATIONS AND  2 ARE EQUILIBRIUM ITERATIONS.

 TIME INCREMENT COMPLETED   10.0    ,  FRACTION OF STEP COMPLETED  0.240    
 STEP TIME COMPLETED        240.    ,  TOTAL TIME COMPLETED         240.    


  INCREMENT    25 STARTS. ATTEMPT NUMBER  1, TIME INCREMENT   10.0    
 
	SYMMETRIC NEW DIRECT SPARSE SOLVER RUNNING ON
 	1 HOST x 1 MPI RANK PER HOST x 8 THREADS PER RANK
        NUMBER OF EQUATIONS:  126117
        NUMBER OF RHS:        1
        NUMBER OF FLOPS:      3.692e+10
        SOLVER ELAPSED TIME:  401ms

               CONVERGENCE CHECKS FOR EQUILIBRIUM ITERATION     1


 AVERAGE FORCE                       1.90       TIME AVG. FORCE       0.988    
 LARGEST SCALED RESIDUAL FORCE     -1.007E-02   AT NODE      25899   DOF  2
   INSTANCE: CHD4-M-1                                                                        
  CORRESPONDING RESIDUAL FORCE     -1.007E-02
 LARGEST INCREMENT OF DISP.         1.600E-05   AT NODE         15   DOF  2
   INSTANCE: CHD4-M-1                                                                        
 LARGEST CORRECTION TO DISP.        1.982E-08   AT NODE       2130   DOF  2
   INSTANCE: CHD4-M-1                                                                        
          FORCE     EQUILIBRIUM NOT ACHIEVED WITHIN TOLERANCE.
 
	SYMMETRIC NEW DIRECT SPARSE SOLVER RUNNING ON
 	1 HOST x 1 MPI RANK PER HOST x 8 THREADS PER RANK
        NUMBER OF EQUATIONS:  126117
        NUMBER OF RHS:        1
        NUMBER OF FLOPS:      3.692e+10
        SOLVER ELAPSED TIME:  401ms

               CONVERGENCE CHECKS FOR EQUILIBRIUM ITERATION     2


 AVERAGE FORCE                       1.90       TIME AVG. FORCE       0.988    
 LARGEST SCALED RESIDUAL FORCE     -5.234E-05   AT NODE      20902   DOF  2
   INSTANCE: CHD4-M-1                                                                        
  CORRESPONDING RESIDUAL FORCE     -5.234E-05
 LARGEST INCREMENT OF DISP.         1.600E-05   AT NODE         15   DOF  2
   INSTANCE: CHD4-M-1                                                                        
 LARGEST CORRECTION TO DISP.       -5.628E-10   AT NODE       8328   DOF  2
   INSTANCE: CHD4-M-1                                                                        
          THE FORCE     EQUILIBRIUM EQUATIONS HAVE CONVERGED

 ITERATION SUMMARY FOR THE INCREMENT:   2 TOTAL ITERATIONS, OF WHICH
   0 ARE SEVERE DISCONTINUITY ITERATIONS AND  2 ARE EQUILIBRIUM ITERATIONS.

 TIME INCREMENT COMPLETED   10.0    ,  FRACTION OF STEP COMPLETED  0.250    
 STEP TIME COMPLETED        250.    ,  TOTAL TIME COMPLETED         250.    


  INCREMENT    26 STARTS. ATTEMPT NUMBER  1, TIME INCREMENT   10.0    
 
	SYMMETRIC NEW DIRECT SPARSE SOLVER RUNNING ON
 	1 HOST x 1 MPI RANK PER HOST x 8 THREADS PER RANK
        NUMBER OF EQUATIONS:  126117
        NUMBER OF RHS:        1
        NUMBER OF FLOPS:      3.692e+10
        SOLVER ELAPSED TIME:  402ms

               CONVERGENCE CHECKS FOR EQUILIBRIUM ITERATION     1


 AVERAGE FORCE                       1.97       TIME AVG. FORCE        1.03    
 LARGEST SCALED RESIDUAL FORCE      8.343E-03   AT NODE      40076   DOF  2
   INSTANCE: CHD4-M-1                                                                        
  CORRESPONDING RESIDUAL FORCE      8.343E-03
 LARGEST INCREMENT OF DISP.         1.600E-05   AT NODE         15   DOF  2
   INSTANCE: CHD4-M-1                                                                        
 LARGEST CORRECTION TO DISP.        1.854E-08   AT NODE      17243   DOF  2
   INSTANCE: CHD4-M-1                                                                        
          FORCE     EQUILIBRIUM NOT ACHIEVED WITHIN TOLERANCE.
 
	SYMMETRIC NEW DIRECT SPARSE SOLVER RUNNING ON
 	1 HOST x 1 MPI RANK PER HOST x 8 THREADS PER RANK
        NUMBER OF EQUATIONS:  126117
        NUMBER OF RHS:        1
        NUMBER OF FLOPS:      3.692e+10
        SOLVER ELAPSED TIME:  400ms

               CONVERGENCE CHECKS FOR EQUILIBRIUM ITERATION     2


 AVERAGE FORCE                       1.97       TIME AVG. FORCE        1.03    
 LARGEST SCALED RESIDUAL FORCE     -1.400E-05   AT NODE       9209   DOF  2
   INSTANCE: CHD4-M-1                                                                        
  CORRESPONDING RESIDUAL FORCE     -1.400E-05
 LARGEST INCREMENT OF DISP.         1.600E-05   AT NODE         15   DOF  2
   INSTANCE: CHD4-M-1                                                                        
 LARGEST CORRECTION TO DISP.       -6.138E-10   AT NODE       8329   DOF  2
   INSTANCE: CHD4-M-1                                                                        
          THE FORCE     EQUILIBRIUM EQUATIONS HAVE CONVERGED

 ITERATION SUMMARY FOR THE INCREMENT:   2 TOTAL ITERATIONS, OF WHICH
   0 ARE SEVERE DISCONTINUITY ITERATIONS AND  2 ARE EQUILIBRIUM ITERATIONS.

 TIME INCREMENT COMPLETED   10.0    ,  FRACTION OF STEP COMPLETED  0.260    
 STEP TIME COMPLETED        260.    ,  TOTAL TIME COMPLETED         260.    


  INCREMENT    27 STARTS. ATTEMPT NUMBER  1, TIME INCREMENT   10.0    
 
	SYMMETRIC NEW DIRECT SPARSE SOLVER RUNNING ON
 	1 HOST x 1 MPI RANK PER HOST x 8 THREADS PER RANK
        NUMBER OF EQUATIONS:  126117
        NUMBER OF RHS:        1
        NUMBER OF FLOPS:      3.692e+10
        SOLVER ELAPSED TIME:  396ms

               CONVERGENCE CHECKS FOR EQUILIBRIUM ITERATION     1


 AVERAGE FORCE                       2.05       TIME AVG. FORCE        1.06    
 LARGEST SCALED RESIDUAL FORCE      9.983E-03   AT NODE      40115   DOF  2
   INSTANCE: CHD4-M-1                                                                        
  CORRESPONDING RESIDUAL FORCE      9.983E-03
 LARGEST INCREMENT OF DISP.         1.600E-05   AT NODE         15   DOF  2
   INSTANCE: CHD4-M-1                                                                        
 LARGEST CORRECTION TO DISP.        1.961E-08   AT NODE       2134   DOF  2
   INSTANCE: CHD4-M-1                                                                        
          FORCE     EQUILIBRIUM NOT ACHIEVED WITHIN TOLERANCE.
 
	SYMMETRIC NEW DIRECT SPARSE SOLVER RUNNING ON
 	1 HOST x 1 MPI RANK PER HOST x 8 THREADS PER RANK
        NUMBER OF EQUATIONS:  126117
        NUMBER OF RHS:        1
        NUMBER OF FLOPS:      3.692e+10
        SOLVER ELAPSED TIME:  396ms

               CONVERGENCE CHECKS FOR EQUILIBRIUM ITERATION     2


 AVERAGE FORCE                       2.05       TIME AVG. FORCE        1.06    
 LARGEST SCALED RESIDUAL FORCE      1.736E-04   AT NODE       6501   DOF  2
   INSTANCE: CHD4-M-1                                                                        
  CORRESPONDING RESIDUAL FORCE      1.736E-04
 LARGEST INCREMENT OF DISP.         1.600E-05   AT NODE         15   DOF  2
   INSTANCE: CHD4-M-1                                                                        
 LARGEST CORRECTION TO DISP.        5.486E-10   AT NODE      40115   DOF  2
   INSTANCE: CHD4-M-1                                                                        
          THE FORCE     EQUILIBRIUM EQUATIONS HAVE CONVERGED

 ITERATION SUMMARY FOR THE INCREMENT:   2 TOTAL ITERATIONS, OF WHICH
   0 ARE SEVERE DISCONTINUITY ITERATIONS AND  2 ARE EQUILIBRIUM ITERATIONS.

 TIME INCREMENT COMPLETED   10.0    ,  FRACTION OF STEP COMPLETED  0.270    
 STEP TIME COMPLETED        270.    ,  TOTAL TIME COMPLETED         270.    


  INCREMENT    28 STARTS. ATTEMPT NUMBER  1, TIME INCREMENT   10.0    
 
	SYMMETRIC NEW DIRECT SPARSE SOLVER RUNNING ON
 	1 HOST x 1 MPI RANK PER HOST x 8 THREADS PER RANK
        NUMBER OF EQUATIONS:  126117
        NUMBER OF RHS:        1
        NUMBER OF FLOPS:      3.692e+10
        SOLVER ELAPSED TIME:  401ms

               CONVERGENCE CHECKS FOR EQUILIBRIUM ITERATION     1


 AVERAGE FORCE                       2.12       TIME AVG. FORCE        1.10    
 LARGEST SCALED RESIDUAL FORCE      8.905E-03   AT NODE      28154   DOF  2
   INSTANCE: CHD4-M-1                                                                        
  CORRESPONDING RESIDUAL FORCE      8.905E-03
 LARGEST INCREMENT OF DISP.         1.600E-05   AT NODE         15   DOF  2
   INSTANCE: CHD4-M-1                                                                        
 LARGEST CORRECTION TO DISP.        1.976E-08   AT NODE      17244   DOF  2
   INSTANCE: CHD4-M-1                                                                        
          FORCE     EQUILIBRIUM NOT ACHIEVED WITHIN TOLERANCE.
 
	SYMMETRIC NEW DIRECT SPARSE SOLVER RUNNING ON
 	1 HOST x 1 MPI RANK PER HOST x 8 THREADS PER RANK
        NUMBER OF EQUATIONS:  126117
        NUMBER OF RHS:        1
        NUMBER OF FLOPS:      3.692e+10
        SOLVER ELAPSED TIME:  401ms

               CONVERGENCE CHECKS FOR EQUILIBRIUM ITERATION     2


 AVERAGE FORCE                       2.12       TIME AVG. FORCE        1.10    
 LARGEST SCALED RESIDUAL FORCE      6.721E-05   AT NODE      20940   DOF  2
   INSTANCE: CHD4-M-1                                                                        
  CORRESPONDING RESIDUAL FORCE      6.721E-05
 LARGEST INCREMENT OF DISP.         1.600E-05   AT NODE         15   DOF  2
   INSTANCE: CHD4-M-1                                                                        
 LARGEST CORRECTION TO DISP.       -4.932E-10   AT NODE       8895   DOF  3
   INSTANCE: CHD4-M-1                                                                        
          THE FORCE     EQUILIBRIUM EQUATIONS HAVE CONVERGED

 ITERATION SUMMARY FOR THE INCREMENT:   2 TOTAL ITERATIONS, OF WHICH
   0 ARE SEVERE DISCONTINUITY ITERATIONS AND  2 ARE EQUILIBRIUM ITERATIONS.

 TIME INCREMENT COMPLETED   10.0    ,  FRACTION OF STEP COMPLETED  0.280    
 STEP TIME COMPLETED        280.    ,  TOTAL TIME COMPLETED         280.    


  INCREMENT    29 STARTS. ATTEMPT NUMBER  1, TIME INCREMENT   10.0    
 
	SYMMETRIC NEW DIRECT SPARSE SOLVER RUNNING ON
 	1 HOST x 1 MPI RANK PER HOST x 8 THREADS PER RANK
        NUMBER OF EQUATIONS:  126117
        NUMBER OF RHS:        1
        NUMBER OF FLOPS:      3.692e+10
        SOLVER ELAPSED TIME:  394ms

               CONVERGENCE CHECKS FOR EQUILIBRIUM ITERATION     1


 AVERAGE FORCE                       2.20       TIME AVG. FORCE        1.14    
 LARGEST SCALED RESIDUAL FORCE      7.165E-03   AT NODE      27491   DOF  2
   INSTANCE: CHD4-M-1                                                                        
  CORRESPONDING RESIDUAL FORCE      7.165E-03
 LARGEST INCREMENT OF DISP.         1.600E-05   AT NODE         15   DOF  2
   INSTANCE: CHD4-M-1                                                                        
 LARGEST CORRECTION TO DISP.        2.079E-08   AT NODE      17206   DOF  2
   INSTANCE: CHD4-M-1                                                                        
          FORCE     EQUILIBRIUM NOT ACHIEVED WITHIN TOLERANCE.
 
	SYMMETRIC NEW DIRECT SPARSE SOLVER RUNNING ON
 	1 HOST x 1 MPI RANK PER HOST x 8 THREADS PER RANK
        NUMBER OF EQUATIONS:  126117
        NUMBER OF RHS:        1
        NUMBER OF FLOPS:      3.692e+10
        SOLVER ELAPSED TIME:  396ms

               CONVERGENCE CHECKS FOR EQUILIBRIUM ITERATION     2


 AVERAGE FORCE                       2.20       TIME AVG. FORCE        1.14    
 LARGEST SCALED RESIDUAL FORCE     -1.713E-04   AT NODE       9674   DOF  2
   INSTANCE: CHD4-M-1                                                                        
  CORRESPONDING RESIDUAL FORCE     -1.713E-04
 LARGEST INCREMENT OF DISP.         1.600E-05   AT NODE         15   DOF  2
   INSTANCE: CHD4-M-1                                                                        
 LARGEST CORRECTION TO DISP.        4.369E-10   AT NODE      27491   DOF  2
   INSTANCE: CHD4-M-1                                                                        
          THE FORCE     EQUILIBRIUM EQUATIONS HAVE CONVERGED

 ITERATION SUMMARY FOR THE INCREMENT:   2 TOTAL ITERATIONS, OF WHICH
   0 ARE SEVERE DISCONTINUITY ITERATIONS AND  2 ARE EQUILIBRIUM ITERATIONS.

 TIME INCREMENT COMPLETED   10.0    ,  FRACTION OF STEP COMPLETED  0.290    
 STEP TIME COMPLETED        290.    ,  TOTAL TIME COMPLETED         290.    


  INCREMENT    30 STARTS. ATTEMPT NUMBER  1, TIME INCREMENT   10.0    
 
	SYMMETRIC NEW DIRECT SPARSE SOLVER RUNNING ON
 	1 HOST x 1 MPI RANK PER HOST x 8 THREADS PER RANK
        NUMBER OF EQUATIONS:  126117
        NUMBER OF RHS:        1
        NUMBER OF FLOPS:      3.692e+10
        SOLVER ELAPSED TIME:  400ms

               CONVERGENCE CHECKS FOR EQUILIBRIUM ITERATION     1


 AVERAGE FORCE                       2.27       TIME AVG. FORCE        1.18    
 LARGEST SCALED RESIDUAL FORCE     -7.726E-03   AT NODE      23044   DOF  2
   INSTANCE: CHD4-M-1                                                                        
  CORRESPONDING RESIDUAL FORCE     -7.726E-03
 LARGEST INCREMENT OF DISP.         1.600E-05   AT NODE         15   DOF  2
   INSTANCE: CHD4-M-1                                                                        
 LARGEST CORRECTION TO DISP.        2.263E-08   AT NODE      17245   DOF  2
   INSTANCE: CHD4-M-1                                                                        
          FORCE     EQUILIBRIUM NOT ACHIEVED WITHIN TOLERANCE.
 
	SYMMETRIC NEW DIRECT SPARSE SOLVER RUNNING ON
 	1 HOST x 1 MPI RANK PER HOST x 8 THREADS PER RANK
        NUMBER OF EQUATIONS:  126117
        NUMBER OF RHS:        1
        NUMBER OF FLOPS:      3.692e+10
        SOLVER ELAPSED TIME:  402ms

               CONVERGENCE CHECKS FOR EQUILIBRIUM ITERATION     2


 AVERAGE FORCE                       2.27       TIME AVG. FORCE        1.18    
 LARGEST SCALED RESIDUAL FORCE      1.655E-04   AT NODE      28231   DOF  2
   INSTANCE: CHD4-M-1                                                                        
  CORRESPONDING RESIDUAL FORCE      1.655E-04
 LARGEST INCREMENT OF DISP.         1.600E-05   AT NODE         15   DOF  2
   INSTANCE: CHD4-M-1                                                                        
 LARGEST CORRECTION TO DISP.        3.861E-10   AT NODE      39454   DOF  2
   INSTANCE: CHD4-M-1                                                                        
          THE FORCE     EQUILIBRIUM EQUATIONS HAVE CONVERGED

 ITERATION SUMMARY FOR THE INCREMENT:   2 TOTAL ITERATIONS, OF WHICH
   0 ARE SEVERE DISCONTINUITY ITERATIONS AND  2 ARE EQUILIBRIUM ITERATIONS.

 TIME INCREMENT COMPLETED   10.0    ,  FRACTION OF STEP COMPLETED  0.300    
 STEP TIME COMPLETED        300.    ,  TOTAL TIME COMPLETED         300.    


  INCREMENT    31 STARTS. ATTEMPT NUMBER  1, TIME INCREMENT   10.0    
 
	SYMMETRIC NEW DIRECT SPARSE SOLVER RUNNING ON
 	1 HOST x 1 MPI RANK PER HOST x 8 THREADS PER RANK
        NUMBER OF EQUATIONS:  126117
        NUMBER OF RHS:        1
        NUMBER OF FLOPS:      3.692e+10
        SOLVER ELAPSED TIME:  404ms

               CONVERGENCE CHECKS FOR EQUILIBRIUM ITERATION     1


 AVERAGE FORCE                       2.35       TIME AVG. FORCE        1.22    
 LARGEST SCALED RESIDUAL FORCE     -3.329E-03   AT NODE       6621   DOF  3
   INSTANCE: CHD4-M-1                                                                        
  CORRESPONDING RESIDUAL FORCE     -3.329E-03
 LARGEST INCREMENT OF DISP.         1.600E-05   AT NODE         15   DOF  2
   INSTANCE: CHD4-M-1                                                                        
 LARGEST CORRECTION TO DISP.        2.400E-08   AT NODE       9869   DOF  2
   INSTANCE: CHD4-M-1                                                                        
          THE FORCE     EQUILIBRIUM EQUATIONS HAVE CONVERGED

 ITERATION SUMMARY FOR THE INCREMENT:   1 TOTAL ITERATIONS, OF WHICH
   0 ARE SEVERE DISCONTINUITY ITERATIONS AND  1 ARE EQUILIBRIUM ITERATIONS.

 TIME INCREMENT COMPLETED   10.0    ,  FRACTION OF STEP COMPLETED  0.310    
 STEP TIME COMPLETED        310.    ,  TOTAL TIME COMPLETED         310.    


  INCREMENT    32 STARTS. ATTEMPT NUMBER  1, TIME INCREMENT   10.0    
 
	SYMMETRIC NEW DIRECT SPARSE SOLVER RUNNING ON
 	1 HOST x 1 MPI RANK PER HOST x 8 THREADS PER RANK
        NUMBER OF EQUATIONS:  126117
        NUMBER OF RHS:        1
        NUMBER OF FLOPS:      3.692e+10
        SOLVER ELAPSED TIME:  395ms

               CONVERGENCE CHECKS FOR EQUILIBRIUM ITERATION     1


 AVERAGE FORCE                       2.42       TIME AVG. FORCE        1.25    
 LARGEST SCALED RESIDUAL FORCE     -6.460E-03   AT NODE      23121   DOF  2
   INSTANCE: CHD4-M-1                                                                        
  CORRESPONDING RESIDUAL FORCE     -6.460E-03
 LARGEST INCREMENT OF DISP.         1.600E-05   AT NODE         15   DOF  2
   INSTANCE: CHD4-M-1                                                                        
 LARGEST CORRECTION TO DISP.        2.503E-08   AT NODE       9908   DOF  2
   INSTANCE: CHD4-M-1                                                                        
          FORCE     EQUILIBRIUM NOT ACHIEVED WITHIN TOLERANCE.
 
	SYMMETRIC NEW DIRECT SPARSE SOLVER RUNNING ON
 	1 HOST x 1 MPI RANK PER HOST x 8 THREADS PER RANK
        NUMBER OF EQUATIONS:  126117
        NUMBER OF RHS:        1
        NUMBER OF FLOPS:      3.692e+10
        SOLVER ELAPSED TIME:  393ms

               CONVERGENCE CHECKS FOR EQUILIBRIUM ITERATION     2


 AVERAGE FORCE                       2.42       TIME AVG. FORCE        1.25    
 LARGEST SCALED RESIDUAL FORCE     -1.423E-04   AT NODE      24382   DOF  2
   INSTANCE: CHD4-M-1                                                                        
  CORRESPONDING RESIDUAL FORCE     -1.423E-04
 LARGEST INCREMENT OF DISP.         1.600E-05   AT NODE         15   DOF  2
   INSTANCE: CHD4-M-1                                                                        
 LARGEST CORRECTION TO DISP.       -7.618E-10   AT NODE       6459   DOF  2
   INSTANCE: CHD4-M-1                                                                        
          THE FORCE     EQUILIBRIUM EQUATIONS HAVE CONVERGED

 ITERATION SUMMARY FOR THE INCREMENT:   2 TOTAL ITERATIONS, OF WHICH
   0 ARE SEVERE DISCONTINUITY ITERATIONS AND  2 ARE EQUILIBRIUM ITERATIONS.

 TIME INCREMENT COMPLETED   10.0    ,  FRACTION OF STEP COMPLETED  0.320    
 STEP TIME COMPLETED        320.    ,  TOTAL TIME COMPLETED         320.    


  INCREMENT    33 STARTS. ATTEMPT NUMBER  1, TIME INCREMENT   10.0    
 
	SYMMETRIC NEW DIRECT SPARSE SOLVER RUNNING ON
 	1 HOST x 1 MPI RANK PER HOST x 8 THREADS PER RANK
        NUMBER OF EQUATIONS:  126117
        NUMBER OF RHS:        1
        NUMBER OF FLOPS:      3.692e+10
        SOLVER ELAPSED TIME:  401ms

               CONVERGENCE CHECKS FOR EQUILIBRIUM ITERATION     1


 AVERAGE FORCE                       2.49       TIME AVG. FORCE        1.29    
 LARGEST SCALED RESIDUAL FORCE      9.749E-03   AT NODE      40197   DOF  2
   INSTANCE: CHD4-M-1                                                                        
  CORRESPONDING RESIDUAL FORCE      9.749E-03
 LARGEST INCREMENT OF DISP.         1.600E-05   AT NODE         15   DOF  2
   INSTANCE: CHD4-M-1                                                                        
 LARGEST CORRECTION TO DISP.        2.679E-08   AT NODE       9907   DOF  2
   INSTANCE: CHD4-M-1                                                                        
          FORCE     EQUILIBRIUM NOT ACHIEVED WITHIN TOLERANCE.
 
	SYMMETRIC NEW DIRECT SPARSE SOLVER RUNNING ON
 	1 HOST x 1 MPI RANK PER HOST x 8 THREADS PER RANK
        NUMBER OF EQUATIONS:  126117
        NUMBER OF RHS:        1
        NUMBER OF FLOPS:      3.692e+10
        SOLVER ELAPSED TIME:  401ms

               CONVERGENCE CHECKS FOR EQUILIBRIUM ITERATION     2


 AVERAGE FORCE                       2.49       TIME AVG. FORCE        1.29    
 LARGEST SCALED RESIDUAL FORCE      6.288E-05   AT NODE      28425   DOF  2
   INSTANCE: CHD4-M-1                                                                        
  CORRESPONDING RESIDUAL FORCE      6.288E-05
 LARGEST INCREMENT OF DISP.         1.600E-05   AT NODE         15   DOF  2
   INSTANCE: CHD4-M-1                                                                        
 LARGEST CORRECTION TO DISP.        6.279E-10   AT NODE       8970   DOF  2
   INSTANCE: CHD4-M-1                                                                        
          THE FORCE     EQUILIBRIUM EQUATIONS HAVE CONVERGED

 ITERATION SUMMARY FOR THE INCREMENT:   2 TOTAL ITERATIONS, OF WHICH
   0 ARE SEVERE DISCONTINUITY ITERATIONS AND  2 ARE EQUILIBRIUM ITERATIONS.

 TIME INCREMENT COMPLETED   10.0    ,  FRACTION OF STEP COMPLETED  0.330    
 STEP TIME COMPLETED        330.    ,  TOTAL TIME COMPLETED         330.    


  INCREMENT    34 STARTS. ATTEMPT NUMBER  1, TIME INCREMENT   10.0    
 
	SYMMETRIC NEW DIRECT SPARSE SOLVER RUNNING ON
 	1 HOST x 1 MPI RANK PER HOST x 8 THREADS PER RANK
        NUMBER OF EQUATIONS:  126117
        NUMBER OF RHS:        1
        NUMBER OF FLOPS:      3.692e+10
        SOLVER ELAPSED TIME:  400ms

               CONVERGENCE CHECKS FOR EQUILIBRIUM ITERATION     1


 AVERAGE FORCE                       2.57       TIME AVG. FORCE        1.33    
 LARGEST SCALED RESIDUAL FORCE      4.778E-03   AT NODE      22886   DOF  2
   INSTANCE: CHD4-M-1                                                                        
  CORRESPONDING RESIDUAL FORCE      4.778E-03
 LARGEST INCREMENT OF DISP.         1.600E-05   AT NODE         15   DOF  2
   INSTANCE: CHD4-M-1                                                                        
 LARGEST CORRECTION TO DISP.        2.791E-08   AT NODE       9906   DOF  2
   INSTANCE: CHD4-M-1                                                                        
          THE FORCE     EQUILIBRIUM EQUATIONS HAVE CONVERGED

 ITERATION SUMMARY FOR THE INCREMENT:   1 TOTAL ITERATIONS, OF WHICH
   0 ARE SEVERE DISCONTINUITY ITERATIONS AND  1 ARE EQUILIBRIUM ITERATIONS.

 TIME INCREMENT COMPLETED   10.0    ,  FRACTION OF STEP COMPLETED  0.340    
 STEP TIME COMPLETED        340.    ,  TOTAL TIME COMPLETED         340.    


  INCREMENT    35 STARTS. ATTEMPT NUMBER  1, TIME INCREMENT   10.0    
 
	SYMMETRIC NEW DIRECT SPARSE SOLVER RUNNING ON
 	1 HOST x 1 MPI RANK PER HOST x 8 THREADS PER RANK
        NUMBER OF EQUATIONS:  126117
        NUMBER OF RHS:        1
        NUMBER OF FLOPS:      3.692e+10
        SOLVER ELAPSED TIME:  399ms

               CONVERGENCE CHECKS FOR EQUILIBRIUM ITERATION     1


 AVERAGE FORCE                       2.64       TIME AVG. FORCE        1.37    
 LARGEST SCALED RESIDUAL FORCE     -4.793E-03   AT NODE      24540   DOF  3
   INSTANCE: CHD4-M-1                                                                        
  CORRESPONDING RESIDUAL FORCE     -4.793E-03
 LARGEST INCREMENT OF DISP.         1.600E-05   AT NODE         15   DOF  2
   INSTANCE: CHD4-M-1                                                                        
 LARGEST CORRECTION TO DISP.        2.971E-08   AT NODE      17365   DOF  2
   INSTANCE: CHD4-M-1                                                                        
          THE FORCE     EQUILIBRIUM EQUATIONS HAVE CONVERGED

 ITERATION SUMMARY FOR THE INCREMENT:   1 TOTAL ITERATIONS, OF WHICH
   0 ARE SEVERE DISCONTINUITY ITERATIONS AND  1 ARE EQUILIBRIUM ITERATIONS.

 TIME INCREMENT COMPLETED   10.0    ,  FRACTION OF STEP COMPLETED  0.350    
 STEP TIME COMPLETED        350.    ,  TOTAL TIME COMPLETED         350.    


  INCREMENT    36 STARTS. ATTEMPT NUMBER  1, TIME INCREMENT   10.0    
 
	SYMMETRIC NEW DIRECT SPARSE SOLVER RUNNING ON
 	1 HOST x 1 MPI RANK PER HOST x 8 THREADS PER RANK
        NUMBER OF EQUATIONS:  126117
        NUMBER OF RHS:        1
        NUMBER OF FLOPS:      3.692e+10
        SOLVER ELAPSED TIME:  400ms

               CONVERGENCE CHECKS FOR EQUILIBRIUM ITERATION     1


 AVERAGE FORCE                       2.71       TIME AVG. FORCE        1.40    
 LARGEST SCALED RESIDUAL FORCE      8.570E-03   AT NODE       8622   DOF  3
   INSTANCE: CHD4-M-1                                                                        
  CORRESPONDING RESIDUAL FORCE      8.570E-03
 LARGEST INCREMENT OF DISP.         1.600E-05   AT NODE         15   DOF  2
   INSTANCE: CHD4-M-1                                                                        
 LARGEST CORRECTION TO DISP.        3.276E-08   AT NODE      39223   DOF  2
   INSTANCE: CHD4-M-1                                                                        
          FORCE     EQUILIBRIUM NOT ACHIEVED WITHIN TOLERANCE.
 
	SYMMETRIC NEW DIRECT SPARSE SOLVER RUNNING ON
 	1 HOST x 1 MPI RANK PER HOST x 8 THREADS PER RANK
        NUMBER OF EQUATIONS:  126117
        NUMBER OF RHS:        1
        NUMBER OF FLOPS:      3.692e+10
        SOLVER ELAPSED TIME:  400ms

               CONVERGENCE CHECKS FOR EQUILIBRIUM ITERATION     2


 AVERAGE FORCE                       2.71       TIME AVG. FORCE        1.40    
 LARGEST SCALED RESIDUAL FORCE      7.012E-05   AT NODE      26043   DOF  2
   INSTANCE: CHD4-M-1                                                                        
  CORRESPONDING RESIDUAL FORCE      7.012E-05
 LARGEST INCREMENT OF DISP.         1.600E-05   AT NODE         15   DOF  2
   INSTANCE: CHD4-M-1                                                                        
 LARGEST CORRECTION TO DISP.        5.167E-10   AT NODE      39536   DOF  2
   INSTANCE: CHD4-M-1                                                                        
          THE FORCE     EQUILIBRIUM EQUATIONS HAVE CONVERGED

 ITERATION SUMMARY FOR THE INCREMENT:   2 TOTAL ITERATIONS, OF WHICH
   0 ARE SEVERE DISCONTINUITY ITERATIONS AND  2 ARE EQUILIBRIUM ITERATIONS.

 TIME INCREMENT COMPLETED   10.0    ,  FRACTION OF STEP COMPLETED  0.360    
 STEP TIME COMPLETED        360.    ,  TOTAL TIME COMPLETED         360.    


  INCREMENT    37 STARTS. ATTEMPT NUMBER  1, TIME INCREMENT   10.0    
 
	SYMMETRIC NEW DIRECT SPARSE SOLVER RUNNING ON
 	1 HOST x 1 MPI RANK PER HOST x 8 THREADS PER RANK
        NUMBER OF EQUATIONS:  126117
        NUMBER OF RHS:        1
        NUMBER OF FLOPS:      3.692e+10
        SOLVER ELAPSED TIME:  396ms

               CONVERGENCE CHECKS FOR EQUILIBRIUM ITERATION     1


 AVERAGE FORCE                       2.78       TIME AVG. FORCE        1.44    
 LARGEST SCALED RESIDUAL FORCE      6.416E-03   AT NODE      39109   DOF  2
   INSTANCE: CHD4-M-1                                                                        
  CORRESPONDING RESIDUAL FORCE      6.416E-03
 LARGEST INCREMENT OF DISP.         1.600E-05   AT NODE         15   DOF  2
   INSTANCE: CHD4-M-1                                                                        
 LARGEST CORRECTION TO DISP.        3.807E-08   AT NODE      10384   DOF  2
   INSTANCE: CHD4-M-1                                                                        
          THE FORCE     EQUILIBRIUM EQUATIONS HAVE CONVERGED

 ITERATION SUMMARY FOR THE INCREMENT:   1 TOTAL ITERATIONS, OF WHICH
   0 ARE SEVERE DISCONTINUITY ITERATIONS AND  1 ARE EQUILIBRIUM ITERATIONS.

 TIME INCREMENT COMPLETED   10.0    ,  FRACTION OF STEP COMPLETED  0.370    
 STEP TIME COMPLETED        370.    ,  TOTAL TIME COMPLETED         370.    


  INCREMENT    38 STARTS. ATTEMPT NUMBER  1, TIME INCREMENT   10.0    
 
	SYMMETRIC NEW DIRECT SPARSE SOLVER RUNNING ON
 	1 HOST x 1 MPI RANK PER HOST x 8 THREADS PER RANK
        NUMBER OF EQUATIONS:  126117
        NUMBER OF RHS:        1
        NUMBER OF FLOPS:      3.692e+10
        SOLVER ELAPSED TIME:  402ms

               CONVERGENCE CHECKS FOR EQUILIBRIUM ITERATION     1


 AVERAGE FORCE                       2.86       TIME AVG. FORCE        1.48    
 LARGEST SCALED RESIDUAL FORCE      1.240E-02   AT NODE      40593   DOF  2
   INSTANCE: CHD4-M-1                                                                        
  CORRESPONDING RESIDUAL FORCE      1.240E-02
 LARGEST INCREMENT OF DISP.         1.600E-05   AT NODE         15   DOF  2
   INSTANCE: CHD4-M-1                                                                        
 LARGEST CORRECTION TO DISP.        5.275E-08   AT NODE      37715   DOF  2
   INSTANCE: CHD4-M-1                                                                        
          FORCE     EQUILIBRIUM NOT ACHIEVED WITHIN TOLERANCE.
 
	SYMMETRIC NEW DIRECT SPARSE SOLVER RUNNING ON
 	1 HOST x 1 MPI RANK PER HOST x 8 THREADS PER RANK
        NUMBER OF EQUATIONS:  126117
        NUMBER OF RHS:        1
        NUMBER OF FLOPS:      3.692e+10
        SOLVER ELAPSED TIME:  401ms

               CONVERGENCE CHECKS FOR EQUILIBRIUM ITERATION     2


 AVERAGE FORCE                       2.86       TIME AVG. FORCE        1.48    
 LARGEST SCALED RESIDUAL FORCE     -6.837E-04   AT NODE      39268   DOF  2
   INSTANCE: CHD4-M-1                                                                        
  CORRESPONDING RESIDUAL FORCE     -6.837E-04
 LARGEST INCREMENT OF DISP.         1.600E-05   AT NODE         15   DOF  2
   INSTANCE: CHD4-M-1                                                                        
 LARGEST CORRECTION TO DISP.        7.737E-10   AT NODE      10467   DOF  2
   INSTANCE: CHD4-M-1                                                                        
          THE FORCE     EQUILIBRIUM EQUATIONS HAVE CONVERGED

 ITERATION SUMMARY FOR THE INCREMENT:   2 TOTAL ITERATIONS, OF WHICH
   0 ARE SEVERE DISCONTINUITY ITERATIONS AND  2 ARE EQUILIBRIUM ITERATIONS.

 TIME INCREMENT COMPLETED   10.0    ,  FRACTION OF STEP COMPLETED  0.380    
 STEP TIME COMPLETED        380.    ,  TOTAL TIME COMPLETED         380.    


  INCREMENT    39 STARTS. ATTEMPT NUMBER  1, TIME INCREMENT   10.0    
 
	SYMMETRIC NEW DIRECT SPARSE SOLVER RUNNING ON
 	1 HOST x 1 MPI RANK PER HOST x 8 THREADS PER RANK
        NUMBER OF EQUATIONS:  126117
        NUMBER OF RHS:        1
        NUMBER OF FLOPS:      3.692e+10
        SOLVER ELAPSED TIME:  402ms

               CONVERGENCE CHECKS FOR EQUILIBRIUM ITERATION     1


 AVERAGE FORCE                       2.93       TIME AVG. FORCE        1.51    
 LARGEST SCALED RESIDUAL FORCE     -1.156E-02   AT NODE      39270   DOF  2
   INSTANCE: CHD4-M-1                                                                        
  CORRESPONDING RESIDUAL FORCE     -1.156E-02
 LARGEST INCREMENT OF DISP.         1.600E-05   AT NODE         15   DOF  2
   INSTANCE: CHD4-M-1                                                                        
 LARGEST CORRECTION TO DISP.        6.413E-08   AT NODE      15033   DOF  2
   INSTANCE: CHD4-M-1                                                                        
          FORCE     EQUILIBRIUM NOT ACHIEVED WITHIN TOLERANCE.
 
	SYMMETRIC NEW DIRECT SPARSE SOLVER RUNNING ON
 	1 HOST x 1 MPI RANK PER HOST x 8 THREADS PER RANK
        NUMBER OF EQUATIONS:  126117
        NUMBER OF RHS:        1
        NUMBER OF FLOPS:      3.692e+10
        SOLVER ELAPSED TIME:  401ms

               CONVERGENCE CHECKS FOR EQUILIBRIUM ITERATION     2


 AVERAGE FORCE                       2.93       TIME AVG. FORCE        1.51    
 LARGEST SCALED RESIDUAL FORCE     -3.540E-04   AT NODE      38568   DOF  2
   INSTANCE: CHD4-M-1                                                                        
  CORRESPONDING RESIDUAL FORCE     -3.540E-04
 LARGEST INCREMENT OF DISP.         1.600E-05   AT NODE         15   DOF  2
   INSTANCE: CHD4-M-1                                                                        
 LARGEST CORRECTION TO DISP.       -1.023E-09   AT NODE      30098   DOF  2
   INSTANCE: CHD4-M-1                                                                        
          THE FORCE     EQUILIBRIUM EQUATIONS HAVE CONVERGED

 ITERATION SUMMARY FOR THE INCREMENT:   2 TOTAL ITERATIONS, OF WHICH
   0 ARE SEVERE DISCONTINUITY ITERATIONS AND  2 ARE EQUILIBRIUM ITERATIONS.

 TIME INCREMENT COMPLETED   10.0    ,  FRACTION OF STEP COMPLETED  0.390    
 STEP TIME COMPLETED        390.    ,  TOTAL TIME COMPLETED         390.    


  INCREMENT    40 STARTS. ATTEMPT NUMBER  1, TIME INCREMENT   10.0    
 
	SYMMETRIC NEW DIRECT SPARSE SOLVER RUNNING ON
 	1 HOST x 1 MPI RANK PER HOST x 8 THREADS PER RANK
        NUMBER OF EQUATIONS:  126117
        NUMBER OF RHS:        1
        NUMBER OF FLOPS:      3.692e+10
        SOLVER ELAPSED TIME:  388ms

               CONVERGENCE CHECKS FOR EQUILIBRIUM ITERATION     1


 AVERAGE FORCE                       3.00       TIME AVG. FORCE        1.55    
 LARGEST SCALED RESIDUAL FORCE      1.615E-02   AT NODE      34141   DOF  2
   INSTANCE: CHD4-M-1                                                                        
  CORRESPONDING RESIDUAL FORCE      1.615E-02
 LARGEST INCREMENT OF DISP.         1.600E-05   AT NODE         15   DOF  2
   INSTANCE: CHD4-M-1                                                                        
 LARGEST CORRECTION TO DISP.        7.109E-08   AT NODE      14846   DOF  2
   INSTANCE: CHD4-M-1                                                                        
          FORCE     EQUILIBRIUM NOT ACHIEVED WITHIN TOLERANCE.
 
	SYMMETRIC NEW DIRECT SPARSE SOLVER RUNNING ON
 	1 HOST x 1 MPI RANK PER HOST x 8 THREADS PER RANK
        NUMBER OF EQUATIONS:  126117
        NUMBER OF RHS:        1
        NUMBER OF FLOPS:      3.692e+10
        SOLVER ELAPSED TIME:  398ms

               CONVERGENCE CHECKS FOR EQUILIBRIUM ITERATION     2


 AVERAGE FORCE                       2.99       TIME AVG. FORCE        1.55    
 LARGEST SCALED RESIDUAL FORCE     -4.882E-04   AT NODE       8651   DOF  2
   INSTANCE: CHD4-M-1                                                                        
  CORRESPONDING RESIDUAL FORCE     -4.882E-04
 LARGEST INCREMENT OF DISP.         1.600E-05   AT NODE         15   DOF  2
   INSTANCE: CHD4-M-1                                                                        
 LARGEST CORRECTION TO DISP.        1.151E-09   AT NODE      34141   DOF  2
   INSTANCE: CHD4-M-1                                                                        
          THE FORCE     EQUILIBRIUM EQUATIONS HAVE CONVERGED

 ITERATION SUMMARY FOR THE INCREMENT:   2 TOTAL ITERATIONS, OF WHICH
   0 ARE SEVERE DISCONTINUITY ITERATIONS AND  2 ARE EQUILIBRIUM ITERATIONS.

 TIME INCREMENT COMPLETED   10.0    ,  FRACTION OF STEP COMPLETED  0.400    
 STEP TIME COMPLETED        400.    ,  TOTAL TIME COMPLETED         400.    


  INCREMENT    41 STARTS. ATTEMPT NUMBER  1, TIME INCREMENT   10.0    
 
	SYMMETRIC NEW DIRECT SPARSE SOLVER RUNNING ON
 	1 HOST x 1 MPI RANK PER HOST x 8 THREADS PER RANK
        NUMBER OF EQUATIONS:  126117
        NUMBER OF RHS:        1
        NUMBER OF FLOPS:      3.692e+10
        SOLVER ELAPSED TIME:  402ms

               CONVERGENCE CHECKS FOR EQUILIBRIUM ITERATION     1


 AVERAGE FORCE                       3.06       TIME AVG. FORCE        1.59    
 LARGEST SCALED RESIDUAL FORCE      1.637E-02   AT NODE      32845   DOF  2
   INSTANCE: CHD4-M-1                                                                        
  CORRESPONDING RESIDUAL FORCE      1.637E-02
 LARGEST INCREMENT OF DISP.         1.600E-05   AT NODE         15   DOF  2
   INSTANCE: CHD4-M-1                                                                        
 LARGEST CORRECTION TO DISP.        8.232E-08   AT NODE      18236   DOF  2
   INSTANCE: CHD4-M-1                                                                        
          FORCE     EQUILIBRIUM NOT ACHIEVED WITHIN TOLERANCE.
 
	SYMMETRIC NEW DIRECT SPARSE SOLVER RUNNING ON
 	1 HOST x 1 MPI RANK PER HOST x 8 THREADS PER RANK
        NUMBER OF EQUATIONS:  126117
        NUMBER OF RHS:        1
        NUMBER OF FLOPS:      3.692e+10
        SOLVER ELAPSED TIME:  406ms

               CONVERGENCE CHECKS FOR EQUILIBRIUM ITERATION     2


 AVERAGE FORCE                       3.06       TIME AVG. FORCE        1.59    
 LARGEST SCALED RESIDUAL FORCE      1.152E-03   AT NODE      35397   DOF  2
   INSTANCE: CHD4-M-1                                                                        
  CORRESPONDING RESIDUAL FORCE      1.152E-03
 LARGEST INCREMENT OF DISP.         1.600E-05   AT NODE         15   DOF  2
   INSTANCE: CHD4-M-1                                                                        
 LARGEST CORRECTION TO DISP.        1.904E-09   AT NODE      15133   DOF  2
   INSTANCE: CHD4-M-1                                                                        
          THE FORCE     EQUILIBRIUM EQUATIONS HAVE CONVERGED

 ITERATION SUMMARY FOR THE INCREMENT:   2 TOTAL ITERATIONS, OF WHICH
   0 ARE SEVERE DISCONTINUITY ITERATIONS AND  2 ARE EQUILIBRIUM ITERATIONS.

 TIME INCREMENT COMPLETED   10.0    ,  FRACTION OF STEP COMPLETED  0.410    
 STEP TIME COMPLETED        410.    ,  TOTAL TIME COMPLETED         410.    


  INCREMENT    42 STARTS. ATTEMPT NUMBER  1, TIME INCREMENT   10.0    
 
[...]


  INCREMENT    97 STARTS. ATTEMPT NUMBER  1, TIME INCREMENT   10.0    
 
	SYMMETRIC NEW DIRECT SPARSE SOLVER RUNNING ON
 	1 HOST x 1 MPI RANK PER HOST x 8 THREADS PER RANK
        NUMBER OF EQUATIONS:  126117
        NUMBER OF RHS:        1
        NUMBER OF FLOPS:      3.692e+10
        SOLVER ELAPSED TIME:  406ms

               CONVERGENCE CHECKS FOR EQUILIBRIUM ITERATION     1


 AVERAGE FORCE                       3.19       TIME AVG. FORCE        2.70    
 LARGEST SCALED RESIDUAL FORCE     -0.672       AT NODE      40161   DOF  2
   INSTANCE: CHD4-M-1                                                                        
  CORRESPONDING RESIDUAL FORCE     -0.672    
 LARGEST INCREMENT OF DISP.         2.106E-05   AT NODE      18252   DOF  2
   INSTANCE: CHD4-M-1                                                                        
 LARGEST CORRECTION TO DISP.        1.989E-06   AT NODE       8304   DOF  2
   INSTANCE: CHD4-M-1                                                                        
          FORCE     EQUILIBRIUM NOT ACHIEVED WITHIN TOLERANCE.
 
	SYMMETRIC NEW DIRECT SPARSE SOLVER RUNNING ON
 	1 HOST x 1 MPI RANK PER HOST x 8 THREADS PER RANK
        NUMBER OF EQUATIONS:  126117
        NUMBER OF RHS:        1
        NUMBER OF FLOPS:      3.692e+10
        SOLVER ELAPSED TIME:  404ms

               CONVERGENCE CHECKS FOR EQUILIBRIUM ITERATION     2


 AVERAGE FORCE                       3.19       TIME AVG. FORCE        2.70    
 LARGEST SCALED RESIDUAL FORCE      0.147       AT NODE      40160   DOF  2
   INSTANCE: CHD4-M-1                                                                        
  CORRESPONDING RESIDUAL FORCE      0.147    
 LARGEST INCREMENT OF DISP.         2.086E-05   AT NODE      18252   DOF  2
   INSTANCE: CHD4-M-1                                                                        
 LARGEST CORRECTION TO DISP.       -4.017E-07   AT NODE       1335   DOF  2
   INSTANCE: CHD4-M-1                                                                        
          FORCE     EQUILIBRIUM NOT ACHIEVED WITHIN TOLERANCE.
 
	SYMMETRIC NEW DIRECT SPARSE SOLVER RUNNING ON
 	1 HOST x 1 MPI RANK PER HOST x 8 THREADS PER RANK
        NUMBER OF EQUATIONS:  126117
        NUMBER OF RHS:        1
        NUMBER OF FLOPS:      3.692e+10
        SOLVER ELAPSED TIME:  403ms

               CONVERGENCE CHECKS FOR EQUILIBRIUM ITERATION     3


 AVERAGE FORCE                       3.19       TIME AVG. FORCE        2.70    
 LARGEST SCALED RESIDUAL FORCE     -6.945E-02   AT NODE      36478   DOF  2
   INSTANCE: CHD4-M-1                                                                        
  CORRESPONDING RESIDUAL FORCE     -6.945E-02
 LARGEST INCREMENT OF DISP.         2.085E-05   AT NODE      18252   DOF  2
   INSTANCE: CHD4-M-1                                                                        
 LARGEST CORRECTION TO DISP.        1.106E-07   AT NODE       9625   DOF  2
   INSTANCE: CHD4-M-1                                                                        
          FORCE     EQUILIBRIUM NOT ACHIEVED WITHIN TOLERANCE.
 
	SYMMETRIC NEW DIRECT SPARSE SOLVER RUNNING ON
 	1 HOST x 1 MPI RANK PER HOST x 8 THREADS PER RANK
        NUMBER OF EQUATIONS:  126117
        NUMBER OF RHS:        1
        NUMBER OF FLOPS:      3.692e+10
        SOLVER ELAPSED TIME:  403ms

               CONVERGENCE CHECKS FOR EQUILIBRIUM ITERATION     4


 AVERAGE FORCE                       3.19       TIME AVG. FORCE        2.70    
 LARGEST SCALED RESIDUAL FORCE      3.067E-02   AT NODE      35871   DOF  2
   INSTANCE: CHD4-M-1                                                                        
  CORRESPONDING RESIDUAL FORCE      3.067E-02
 LARGEST INCREMENT OF DISP.         2.085E-05   AT NODE      18252   DOF  2
   INSTANCE: CHD4-M-1                                                                        
 LARGEST CORRECTION TO DISP.       -7.052E-08   AT NODE       8341   DOF  2
   INSTANCE: CHD4-M-1                                                                        
          FORCE     EQUILIBRIUM NOT ACHIEVED WITHIN TOLERANCE.
 
	SYMMETRIC NEW DIRECT SPARSE SOLVER RUNNING ON
 	1 HOST x 1 MPI RANK PER HOST x 8 THREADS PER RANK
        NUMBER OF EQUATIONS:  126117
        NUMBER OF RHS:        1
        NUMBER OF FLOPS:      3.692e+10
        SOLVER ELAPSED TIME:  410ms

               CONVERGENCE CHECKS FOR EQUILIBRIUM ITERATION     5


 AVERAGE FORCE                       3.19       TIME AVG. FORCE        2.70    
 LARGEST SCALED RESIDUAL FORCE     -1.310E-02   AT NODE      37759   DOF  2
   INSTANCE: CHD4-M-1                                                                        
  CORRESPONDING RESIDUAL FORCE     -1.310E-02
 LARGEST INCREMENT OF DISP.         2.085E-05   AT NODE      18252   DOF  2
   INSTANCE: CHD4-M-1                                                                        
 LARGEST CORRECTION TO DISP.       -2.436E-08   AT NODE       8341   DOF  2
   INSTANCE: CHD4-M-1                                                                        
          THE FORCE     EQUILIBRIUM EQUATIONS HAVE CONVERGED

 ITERATION SUMMARY FOR THE INCREMENT:   5 TOTAL ITERATIONS, OF WHICH
   0 ARE SEVERE DISCONTINUITY ITERATIONS AND  5 ARE EQUILIBRIUM ITERATIONS.

 TIME INCREMENT COMPLETED   10.0    ,  FRACTION OF STEP COMPLETED  0.970    
 STEP TIME COMPLETED        970.    ,  TOTAL TIME COMPLETED         970.    


  INCREMENT    98 STARTS. ATTEMPT NUMBER  1, TIME INCREMENT   10.0    
 
	SYMMETRIC NEW DIRECT SPARSE SOLVER RUNNING ON
 	1 HOST x 1 MPI RANK PER HOST x 8 THREADS PER RANK
        NUMBER OF EQUATIONS:  126117
        NUMBER OF RHS:        1
        NUMBER OF FLOPS:      3.692e+10
        SOLVER ELAPSED TIME:  406ms

               CONVERGENCE CHECKS FOR EQUILIBRIUM ITERATION     1


 AVERAGE FORCE                       3.16       TIME AVG. FORCE        2.71    
 LARGEST SCALED RESIDUAL FORCE      0.566       AT NODE      38997   DOF  2
   INSTANCE: CHD4-M-1                                                                        
  CORRESPONDING RESIDUAL FORCE      0.566    
 LARGEST INCREMENT OF DISP.         2.140E-05   AT NODE      18253   DOF  2
   INSTANCE: CHD4-M-1                                                                        
 LARGEST CORRECTION TO DISP.        1.536E-06   AT NODE       8265   DOF  2
   INSTANCE: CHD4-M-1                                                                        
          FORCE     EQUILIBRIUM NOT ACHIEVED WITHIN TOLERANCE.
 
	SYMMETRIC NEW DIRECT SPARSE SOLVER RUNNING ON
 	1 HOST x 1 MPI RANK PER HOST x 8 THREADS PER RANK
        NUMBER OF EQUATIONS:  126117
        NUMBER OF RHS:        1
        NUMBER OF FLOPS:      3.692e+10
        SOLVER ELAPSED TIME:  409ms

               CONVERGENCE CHECKS FOR EQUILIBRIUM ITERATION     2


 AVERAGE FORCE                       3.16       TIME AVG. FORCE        2.71    
 LARGEST SCALED RESIDUAL FORCE      0.161       AT NODE      23115   DOF  2
   INSTANCE: CHD4-M-1                                                                        
  CORRESPONDING RESIDUAL FORCE      0.161    
 LARGEST INCREMENT OF DISP.         2.118E-05   AT NODE      18252   DOF  2
   INSTANCE: CHD4-M-1                                                                        
 LARGEST CORRECTION TO DISP.       -4.034E-07   AT NODE       8380   DOF  2
   INSTANCE: CHD4-M-1                                                                        
          FORCE     EQUILIBRIUM NOT ACHIEVED WITHIN TOLERANCE.
 
	SYMMETRIC NEW DIRECT SPARSE SOLVER RUNNING ON
 	1 HOST x 1 MPI RANK PER HOST x 8 THREADS PER RANK
        NUMBER OF EQUATIONS:  126117
        NUMBER OF RHS:        1
        NUMBER OF FLOPS:      3.692e+10
        SOLVER ELAPSED TIME:  407ms

               CONVERGENCE CHECKS FOR EQUILIBRIUM ITERATION     3


 AVERAGE FORCE                       3.16       TIME AVG. FORCE        2.71    
 LARGEST SCALED RESIDUAL FORCE     -4.290E-02   AT NODE      39003   DOF  2
   INSTANCE: CHD4-M-1                                                                        
  CORRESPONDING RESIDUAL FORCE     -4.290E-02
 LARGEST INCREMENT OF DISP.         2.118E-05   AT NODE      18252   DOF  2
   INSTANCE: CHD4-M-1                                                                        
 LARGEST CORRECTION TO DISP.        6.706E-08   AT NODE       6161   DOF  2
   INSTANCE: CHD4-M-1                                                                        
          FORCE     EQUILIBRIUM NOT ACHIEVED WITHIN TOLERANCE.
 
	SYMMETRIC NEW DIRECT SPARSE SOLVER RUNNING ON
 	1 HOST x 1 MPI RANK PER HOST x 8 THREADS PER RANK
        NUMBER OF EQUATIONS:  126117
        NUMBER OF RHS:        1
        NUMBER OF FLOPS:      3.692e+10
        SOLVER ELAPSED TIME:  409ms

               CONVERGENCE CHECKS FOR EQUILIBRIUM ITERATION     4


 AVERAGE FORCE                       3.16       TIME AVG. FORCE        2.71    
 LARGEST SCALED RESIDUAL FORCE      2.178E-02   AT NODE      21469   DOF  2
   INSTANCE: CHD4-M-1                                                                        
  CORRESPONDING RESIDUAL FORCE      2.178E-02
 LARGEST INCREMENT OF DISP.         2.118E-05   AT NODE      18252   DOF  2
   INSTANCE: CHD4-M-1                                                                        
 LARGEST CORRECTION TO DISP.        3.591E-08   AT NODE       1613   DOF  2
   INSTANCE: CHD4-M-1                                                                        
          FORCE     EQUILIBRIUM NOT ACHIEVED WITHIN TOLERANCE.
 
	SYMMETRIC NEW DIRECT SPARSE SOLVER RUNNING ON
 	1 HOST x 1 MPI RANK PER HOST x 8 THREADS PER RANK
        NUMBER OF EQUATIONS:  126117
        NUMBER OF RHS:        1
        NUMBER OF FLOPS:      3.692e+10
        SOLVER ELAPSED TIME:  408ms

               CONVERGENCE CHECKS FOR EQUILIBRIUM ITERATION     5


 AVERAGE FORCE                       3.16       TIME AVG. FORCE        2.71    
 LARGEST SCALED RESIDUAL FORCE     -7.770E-03   AT NODE      38339   DOF  2
   INSTANCE: CHD4-M-1                                                                        
  CORRESPONDING RESIDUAL FORCE     -7.770E-03
 LARGEST INCREMENT OF DISP.         2.118E-05   AT NODE      18252   DOF  2
   INSTANCE: CHD4-M-1                                                                        
 LARGEST CORRECTION TO DISP.        1.085E-08   AT NODE       6003   DOF  2
   INSTANCE: CHD4-M-1                                                                        
          THE FORCE     EQUILIBRIUM EQUATIONS HAVE CONVERGED

 ITERATION SUMMARY FOR THE INCREMENT:   5 TOTAL ITERATIONS, OF WHICH
   0 ARE SEVERE DISCONTINUITY ITERATIONS AND  5 ARE EQUILIBRIUM ITERATIONS.

 TIME INCREMENT COMPLETED   10.0    ,  FRACTION OF STEP COMPLETED  0.980    
 STEP TIME COMPLETED        980.    ,  TOTAL TIME COMPLETED         980.    


  INCREMENT    99 STARTS. ATTEMPT NUMBER  1, TIME INCREMENT   10.0    
 
	SYMMETRIC NEW DIRECT SPARSE SOLVER RUNNING ON
 	1 HOST x 1 MPI RANK PER HOST x 8 THREADS PER RANK
        NUMBER OF EQUATIONS:  126117
        NUMBER OF RHS:        1
        NUMBER OF FLOPS:      3.692e+10
        SOLVER ELAPSED TIME:  406ms

               CONVERGENCE CHECKS FOR EQUILIBRIUM ITERATION     1


 AVERAGE FORCE                       3.13       TIME AVG. FORCE        2.71    
 LARGEST SCALED RESIDUAL FORCE     -0.488       AT NODE      22914   DOF  2
   INSTANCE: CHD4-M-1                                                                        
  CORRESPONDING RESIDUAL FORCE     -0.488    
 LARGEST INCREMENT OF DISP.         2.168E-05   AT NODE       1902   DOF  2
   INSTANCE: CHD4-M-1                                                                        
 LARGEST CORRECTION TO DISP.       -1.239E-06   AT NODE       2124   DOF  1
   INSTANCE: CHD4-M-1                                                                        
          FORCE     EQUILIBRIUM NOT ACHIEVED WITHIN TOLERANCE.
 
	SYMMETRIC NEW DIRECT SPARSE SOLVER RUNNING ON
 	1 HOST x 1 MPI RANK PER HOST x 8 THREADS PER RANK
        NUMBER OF EQUATIONS:  126117
        NUMBER OF RHS:        1
        NUMBER OF FLOPS:      3.692e+10
        SOLVER ELAPSED TIME:  404ms

               CONVERGENCE CHECKS FOR EQUILIBRIUM ITERATION     2


 AVERAGE FORCE                       3.13       TIME AVG. FORCE        2.71    
 LARGEST SCALED RESIDUAL FORCE      9.187E-02   AT NODE      40165   DOF  2
   INSTANCE: CHD4-M-1                                                                        
  CORRESPONDING RESIDUAL FORCE      9.187E-02
 LARGEST INCREMENT OF DISP.         2.145E-05   AT NODE       1902   DOF  2
   INSTANCE: CHD4-M-1                                                                        
 LARGEST CORRECTION TO DISP.       -3.716E-07   AT NODE      16950   DOF  2
   INSTANCE: CHD4-M-1                                                                        
          FORCE     EQUILIBRIUM NOT ACHIEVED WITHIN TOLERANCE.
 
	SYMMETRIC NEW DIRECT SPARSE SOLVER RUNNING ON
 	1 HOST x 1 MPI RANK PER HOST x 8 THREADS PER RANK
        NUMBER OF EQUATIONS:  126117
        NUMBER OF RHS:        1
        NUMBER OF FLOPS:      3.692e+10
        SOLVER ELAPSED TIME:  406ms

               CONVERGENCE CHECKS FOR EQUILIBRIUM ITERATION     3


 AVERAGE FORCE                       3.13       TIME AVG. FORCE        2.71    
 LARGEST SCALED RESIDUAL FORCE      3.201E-02   AT NODE      31546   DOF  2
   INSTANCE: CHD4-M-1                                                                        
  CORRESPONDING RESIDUAL FORCE      3.201E-02
 LARGEST INCREMENT OF DISP.         2.145E-05   AT NODE       1902   DOF  2
   INSTANCE: CHD4-M-1                                                                        
 LARGEST CORRECTION TO DISP.        3.773E-08   AT NODE       6239   DOF  2
   INSTANCE: CHD4-M-1                                                                        
          FORCE     EQUILIBRIUM NOT ACHIEVED WITHIN TOLERANCE.
 
	SYMMETRIC NEW DIRECT SPARSE SOLVER RUNNING ON
 	1 HOST x 1 MPI RANK PER HOST x 8 THREADS PER RANK
        NUMBER OF EQUATIONS:  126117
        NUMBER OF RHS:        1
        NUMBER OF FLOPS:      3.692e+10
        SOLVER ELAPSED TIME:  406ms

               CONVERGENCE CHECKS FOR EQUILIBRIUM ITERATION     4


 AVERAGE FORCE                       3.13       TIME AVG. FORCE        2.71    
 LARGEST SCALED RESIDUAL FORCE      7.644E-03   AT NODE      20922   DOF  2
   INSTANCE: CHD4-M-1                                                                        
  CORRESPONDING RESIDUAL FORCE      7.644E-03
 LARGEST INCREMENT OF DISP.         2.145E-05   AT NODE       1902   DOF  2
   INSTANCE: CHD4-M-1                                                                        
 LARGEST CORRECTION TO DISP.        1.324E-08   AT NODE       1059   DOF  2
   INSTANCE: CHD4-M-1                                                                        
          THE FORCE     EQUILIBRIUM EQUATIONS HAVE CONVERGED

 ITERATION SUMMARY FOR THE INCREMENT:   4 TOTAL ITERATIONS, OF WHICH
   0 ARE SEVERE DISCONTINUITY ITERATIONS AND  4 ARE EQUILIBRIUM ITERATIONS.

 TIME INCREMENT COMPLETED   10.0    ,  FRACTION OF STEP COMPLETED  0.990    
 STEP TIME COMPLETED        990.    ,  TOTAL TIME COMPLETED         990.    


  INCREMENT   100 STARTS. ATTEMPT NUMBER  1, TIME INCREMENT   10.0    
 
	SYMMETRIC NEW DIRECT SPARSE SOLVER RUNNING ON
 	1 HOST x 1 MPI RANK PER HOST x 8 THREADS PER RANK
        NUMBER OF EQUATIONS:  126117
        NUMBER OF RHS:        1
        NUMBER OF FLOPS:      3.692e+10
        SOLVER ELAPSED TIME:  399ms

               CONVERGENCE CHECKS FOR EQUILIBRIUM ITERATION     1


 AVERAGE FORCE                       3.10       TIME AVG. FORCE        2.72    
 LARGEST SCALED RESIDUAL FORCE     -0.389       AT NODE       5797   DOF  3
   INSTANCE: CHD4-M-1                                                                        
  CORRESPONDING RESIDUAL FORCE     -0.389    
 LARGEST INCREMENT OF DISP.         2.193E-05   AT NODE       1901   DOF  2
   INSTANCE: CHD4-M-1                                                                        
 LARGEST CORRECTION TO DISP.       -1.174E-06   AT NODE       2125   DOF  1
   INSTANCE: CHD4-M-1                                                                        
          FORCE     EQUILIBRIUM NOT ACHIEVED WITHIN TOLERANCE.
 
	SYMMETRIC NEW DIRECT SPARSE SOLVER RUNNING ON
 	1 HOST x 1 MPI RANK PER HOST x 8 THREADS PER RANK
        NUMBER OF EQUATIONS:  126117
        NUMBER OF RHS:        1
        NUMBER OF FLOPS:      3.692e+10
        SOLVER ELAPSED TIME:  398ms

               CONVERGENCE CHECKS FOR EQUILIBRIUM ITERATION     2


 AVERAGE FORCE                       3.10       TIME AVG. FORCE        2.72    
 LARGEST SCALED RESIDUAL FORCE     -5.243E-02   AT NODE      25956   DOF  2
   INSTANCE: CHD4-M-1                                                                        
  CORRESPONDING RESIDUAL FORCE     -5.243E-02
 LARGEST INCREMENT OF DISP.         2.169E-05   AT NODE       1901   DOF  2
   INSTANCE: CHD4-M-1                                                                        
 LARGEST CORRECTION TO DISP.       -2.965E-07   AT NODE       8230   DOF  2
   INSTANCE: CHD4-M-1                                                                        
          FORCE     EQUILIBRIUM NOT ACHIEVED WITHIN TOLERANCE.
 
	SYMMETRIC NEW DIRECT SPARSE SOLVER RUNNING ON
 	1 HOST x 1 MPI RANK PER HOST x 8 THREADS PER RANK
        NUMBER OF EQUATIONS:  126117
        NUMBER OF RHS:        1
        NUMBER OF FLOPS:      3.692e+10
        SOLVER ELAPSED TIME:  396ms

               CONVERGENCE CHECKS FOR EQUILIBRIUM ITERATION     3


 AVERAGE FORCE                       3.10       TIME AVG. FORCE        2.72    
 LARGEST SCALED RESIDUAL FORCE      1.264E-02   AT NODE      31478   DOF  2
   INSTANCE: CHD4-M-1                                                                        
  CORRESPONDING RESIDUAL FORCE      1.264E-02
 LARGEST INCREMENT OF DISP.         2.170E-05   AT NODE       1901   DOF  2
   INSTANCE: CHD4-M-1                                                                        
 LARGEST CORRECTION TO DISP.       -3.155E-08   AT NODE       1663   DOF  1
   INSTANCE: CHD4-M-1                                                                        
          THE FORCE     EQUILIBRIUM EQUATIONS HAVE CONVERGED

 ITERATION SUMMARY FOR THE INCREMENT:   3 TOTAL ITERATIONS, OF WHICH
   0 ARE SEVERE DISCONTINUITY ITERATIONS AND  3 ARE EQUILIBRIUM ITERATIONS.

 TIME INCREMENT COMPLETED   10.0    ,  FRACTION OF STEP COMPLETED   1.00    
 STEP TIME COMPLETED       1.000E+03,  TOTAL TIME COMPLETED        1.000E+03


          THE ANALYSIS HAS BEEN COMPLETED



     ANALYSIS SUMMARY:
     TOTAL OF        100  INCREMENTS
                       0  CUTBACKS IN AUTOMATIC INCREMENTATION
                     214  ITERATIONS INCLUDING CONTACT ITERATIONS IF PRESENT
                     214  PASSES THROUGH THE EQUATION SOLVER OF WHICH 
                     214  INVOLVE MATRIX DECOMPOSITION, INCLUDING
                       0  DECOMPOSITION(S) OF THE MASS MATRIX
                       1  REORDERING OF EQUATIONS TO MINIMIZE WAVEFRONT
                       0  ADDITIONAL RESIDUAL EVALUATIONS FOR LINE SEARCHES
                       0  ADDITIONAL OPERATOR EVALUATIONS FOR LINE SEARCHES
                       5  WARNING MESSAGES DURING USER INPUT PROCESSING
                       0  WARNING MESSAGES DURING ANALYSIS
                       0  ANALYSIS WARNINGS ARE NUMERICAL PROBLEM MESSAGES
                       0  ANALYSIS WARNINGS ARE NEGATIVE EIGENVALUE MESSAGES
                       0  ERROR MESSAGES



     JOB TIME SUMMARY
       USER TIME (SEC)      =     1.27E+03
       SYSTEM TIME (SEC)    =      20.    
       TOTAL CPU TIME (SEC) =     1.29E+03
       WALLCLOCK TIME (SEC) =          283
       MEMORY PEAK (GB)     =            0
