1

   Abaqus 2023.HF4                                  Date 09-Jun-2024   Time 17:20:41
   For use by AALTO UNIVERSITY under license from Dassault Systemes or its subsidiary.



                         The Abaqus Software is a product of:

                           Dassault Systemes SIMULIA Corp.
                           1301 Atwood Avenue, Suite 101W
                              Johnston, RI 02919, USA
 


                   The Abaqus Software is available only under license
                   from Dassault Systemes or its subsidiary and may be
                   used or reproduced only in accordance with the terms
                   of such license.
 
                          On machine L23-0203 
                          you are authorized to run
                          Abaqus/Standard until 20-Feb-2025

                          Your site id is: 200000000014764 


 
                    For assistance or any other information you may
                    obtain contact information for your local office
                    from the world wide web at:

                      https://www.3ds.com/products-services/simulia/services-support/

 
                * * * * * * * * * * * * * * * * * * * * * * * * * * * * * * 
                *                                                         * 
                *                   *****************                     * 
                *                   *  N O T I C E  *                     * 
                *                   *****************                     * 
                *                                                         * 
                *                                                         * 
                *                     Abaqus 2023.HF4                     * 
                *                                                         * 
                *       BUILD ID: 2023_07_21-20.45.57 RELr425 183702      * 
                *                                                         * 
                *                                                         * 
                *  Please make sure you are using                         * 
                *  release Abaqus 2023.HF4 manuals                        * 
                *  plus the notes accompanying this release.              * 
                *                                                         * 
                *                                                         * 
                *                                                         * 
                *                                                         * 
                *                                                         * 
                *   This program may not be used for commercial purposes  * 
                *           without payment of a commercial fee.          * 
                *                                                         * 
                * * * * * * * * * * * * * * * * * * * * * * * * * * * * * * 


 



     PROCESSING PART, INSTANCE, AND ASSEMBLY INFORMATION
   *******************************************************


     END PROCESSING PART, INSTANCE, AND ASSEMBLY INFORMATION
   ***********************************************************




     OPTIONS BEING PROCESSED
   ***************************


  *Heading
  *Element, type=C3D8
  *Elset, elset=ASSEMBLY_CHD4-M-1_SET-32
  *Elset, elset=ASSEMBLY_SET-1
  *Elset, elset=ASSEMBLY_SET-10
  *Elset, elset=ASSEMBLY_SET-11
  *Elset, elset=ASSEMBLY_SET-4
  *Elset, elset=ASSEMBLY_SET-6
  *Elset, elset=ASSEMBLY_SET-7
  *Elset, elset=ASSEMBLY_SET-8
  *Elset, elset=ASSEMBLY_SET-9
  *material, name=CP1000-M
  *density
  *elastic
  *plastic
  *solidsection, elset=ASSEMBLY_CHD4-M-1_SET-32, material=CP1000-M
  *solidsection, elset=ASSEMBLY_CHD4-M-1_SET-32, material=CP1000-M
  *boundary
  *boundary
  *boundary
  *boundary, amplitude=AMP-1
  *boundary
  *boundary
  *boundary
  *boundary, amplitude=AMP-1
  *output, field, numberinterval=100
  *output, history, variable=PRESELECT
  *output, field, numberinterval=100
  *output, history, variable=PRESELECT
  *output, field, numberinterval=100
  *output, history, variable=PRESELECT
  
                               E L E M E N T   Q U A L I T Y  C H E C K S        
  
  
 ***NOTES: DISTORTED ISOPARAMETRIC ELEMENTS: ANGLE BETWEEN ISOPARAMETRIC LINES 
           IS LESS THAN 45 DEGREES OR GREATER THAN 135 DEGREES.
  
           TETRAHEDRAL QUALITY MEASURE: VOLUME OF TETRAHEDRON DIVIDED BY THE 
           VOLUME OF EQUILATERAL TETRAHEDRON WITH SAME CIRCUMSPHERE RADIUS; 
           0 FOR DEGENERATE TETRAHEDRON AND 1 FOR EQUILATERIAL TETRAHEDRON. IT 
           IS RECOMMENDED THAT THE TETRAHEDRAL QUALITY MEASURE BE GREATER THAN 
           0.02, THE MIN INTERIOR (DIHEDRAL) ANGLE BE GREATER THAN 10 DEGREES, 
           AND THE MAX INTERIOR (DIHEDRAL) ANGLE BE LESS THAN 160 DEGREES. 
  
           MODIFIED TETRAHEDRAL QUALITY MEASURE: ANGLES BETWEEN THE TWO LINE 
           SEGMENTS ON EACH EDGE; THE EDGES OF MODIFIED TETRAHEDRAL SHOULD BE 
           AS STRAIGHT AS POSSIBLE. IT IS RECOMMENDED THAT THE ANGLE BETWEEN 
           THE TWO LINE SEGMENTS ON EACH EDGE IS BETWEEN 160 AND 180 DEGREES. 
  
           TRIANGULAR QUALITY MEASURE: AREA OF TRIANGLE DIVIDED BY THE AREA OF 
           EQUILATERAL TRIANGLE WITH SAME CIRCUMCIRCLE RADIUS; 0 FOR DEGENERATE 
           TRIANGLE AND 1 FOR EQUILATERAL TRIANGLE. IT IS RECOMMENDED THAT THE
           TRIANGULAR QUALITY MEASURE BE GREATER THAN 0.01, THE MIN INTERIOR 
           ANGLE BE GREATER THAN 10 DEGREES, AND THE MAX INTERIOR ANGLE BE LESS 
           THAN 160 DEGREES. 
  
           NODAL ADJUSTMENTS ARISING FROM CONTACT INTERACTIONS AND/OR TIE 
           CONSTRAINTS CAN CAUSE SEVERE ELEMENT DISTORTION. IT MAY BE NECESSARY 
           TO REMESH IN ORDER TO REDUCE THE AMOUNT OF ADJUSTMENT. 

 ***WARNING: 166 elements are distorted. Either the isoparametric angles are 
             out of the suggested limits or the triangular or tetrahedral 
             quality measure is bad. The elements have been identified in 
             element set WarnElemDistorted.
  
 --------------------------------------------------------------------------------
 Distorted isoparametric elements
  
      Element        Min/max angle   Adjusted nodes 
 ------------------ ---------------- -------------- 
      CHD4-M-1.2088          43.2234       NO       
      CHD4-M-1.2104          41.7825       NO       
      CHD4-M-1.2140          25.9976       NO       
      CHD4-M-1.2154          39.9466       NO       
      CHD4-M-1.2157          43.1218       NO       
      CHD4-M-1.2160          27.2761       NO       
      CHD4-M-1.2169          33.1425       NO       
      CHD4-M-1.2171          38.7838       NO       
      CHD4-M-1.2179          27.4211       NO       
      CHD4-M-1.2183           32.886       NO       
      CHD4-M-1.2187          35.6748       NO       
      CHD4-M-1.2192          44.1778       NO       
      CHD4-M-1.2195          44.6962       NO       
      CHD4-M-1.2196          37.2136       NO       
      CHD4-M-1.2201          13.0771       NO       
      CHD4-M-1.2218          38.9936       NO       
      CHD4-M-1.2396          43.2234       NO       
      CHD4-M-1.2412          41.7825       NO       
      CHD4-M-1.2448          25.9976       NO       
      CHD4-M-1.2462          39.9466       NO       
      CHD4-M-1.2465          43.1218       NO       
      CHD4-M-1.2468          27.2761       NO       
      CHD4-M-1.2477          33.1425       NO       
      CHD4-M-1.2479          38.7838       NO       
      CHD4-M-1.2487          27.4211       NO       
      CHD4-M-1.2491           32.886       NO       
      CHD4-M-1.2495          35.6748       NO       
      CHD4-M-1.2500          44.1778       NO       
      CHD4-M-1.2503          44.6962       NO       
      CHD4-M-1.2504          37.2136       NO       
      CHD4-M-1.2509          13.0771       NO       
      CHD4-M-1.2526          38.9936       NO       
      CHD4-M-1.2704          43.2234       NO       
      CHD4-M-1.2720          41.7825       NO       
      CHD4-M-1.2756          25.9976       NO       
      CHD4-M-1.2770          39.9466       NO       
      CHD4-M-1.2773          43.1218       NO       
      CHD4-M-1.2776          27.2761       NO       
      CHD4-M-1.2785          33.1425       NO       
      CHD4-M-1.2787          38.7838       NO       
      CHD4-M-1.2795          27.4211       NO       
      CHD4-M-1.2799           32.886       NO       
      CHD4-M-1.2803          35.6748       NO       
      CHD4-M-1.2808          44.1778       NO       
      CHD4-M-1.2811          44.6962       NO       
      CHD4-M-1.2812          37.2136       NO       
      CHD4-M-1.2817          13.0771       NO       
      CHD4-M-1.2834          38.9936       NO       
      CHD4-M-1.3012          43.2234       NO       
      CHD4-M-1.3028          41.7825       NO       
      CHD4-M-1.3064          25.9976       NO       
      CHD4-M-1.3078          39.9466       NO       
      CHD4-M-1.3081          43.1218       NO       
      CHD4-M-1.3084          27.2761       NO       
      CHD4-M-1.3093          33.1425       NO       
      CHD4-M-1.3095          38.7838       NO       
      CHD4-M-1.3103          27.4211       NO       
      CHD4-M-1.3107           32.886       NO       
      CHD4-M-1.3111          35.6748       NO       
      CHD4-M-1.3116          44.1778       NO       
      CHD4-M-1.3119          44.6962       NO       
      CHD4-M-1.3120          37.2136       NO       
      CHD4-M-1.3125          13.0771       NO       
      CHD4-M-1.3142          38.9936       NO       
      CHD4-M-1.3320          43.2234       NO       
      CHD4-M-1.3336          41.7825       NO       
      CHD4-M-1.3372          25.9976       NO       
      CHD4-M-1.3386          39.9466       NO       
      CHD4-M-1.3389          43.1218       NO       
      CHD4-M-1.3392          27.2761       NO       
      CHD4-M-1.3401          33.1425       NO       
      CHD4-M-1.3403          38.7838       NO       
      CHD4-M-1.3411          27.4211       NO       
      CHD4-M-1.3415           32.886       NO       
      CHD4-M-1.3419          35.6748       NO       
      CHD4-M-1.3424          44.1778       NO       
      CHD4-M-1.3427          44.6962       NO       
      CHD4-M-1.3428          37.2136       NO       
      CHD4-M-1.3433          13.0771       NO       
      CHD4-M-1.3450          38.9936       NO       
      CHD4-M-1.3471          40.8809       NO       
      CHD4-M-1.3483          40.8809       NO       
      CHD4-M-1.3495          40.8809       NO       
      CHD4-M-1.3507          40.8809       NO       
      CHD4-M-1.3519          40.8809       NO       
      CHD4-M-1.3531          40.8809       NO       
      CHD4-M-1.3543          40.8809       NO       
      CHD4-M-1.3555          40.8809       NO       
     CHD4-M-1.31471          44.3248       NO       
     CHD4-M-1.31484          44.3248       NO       
     CHD4-M-1.31497          44.3248       NO       
     CHD4-M-1.31510          44.3248       NO       
     CHD4-M-1.31523          44.3248       NO       
     CHD4-M-1.31536          44.3248       NO       
     CHD4-M-1.31549          44.3248       NO       
     CHD4-M-1.31562          44.3248       NO       
     CHD4-M-1.31888          34.5852       NO       
     CHD4-M-1.31889          43.6526       NO       
     CHD4-M-1.31895          32.1998       NO       
     CHD4-M-1.31905          29.7773       NO       
     CHD4-M-1.31912          35.6065       NO       
     CHD4-M-1.31914          18.8417       NO       
     CHD4-M-1.31915          26.9125       NO       
     CHD4-M-1.31916          38.6774       NO       
     CHD4-M-1.31918          43.3146       NO       
     CHD4-M-1.31919          20.8881       NO       
     CHD4-M-1.31920          35.5573       NO       
     CHD4-M-1.31922          25.4695       NO       
     CHD4-M-1.31924          32.1588       NO       
     CHD4-M-1.31925          37.6466       NO       
     CHD4-M-1.32253          34.5852       NO       
     CHD4-M-1.32254          43.6526       NO       
     CHD4-M-1.32260          32.1998       NO       
     CHD4-M-1.32270          29.7773       NO       
     CHD4-M-1.32277          35.6065       NO       
     CHD4-M-1.32279          18.8417       NO       
     CHD4-M-1.32280          26.9125       NO       
     CHD4-M-1.32281          38.6774       NO       
     CHD4-M-1.32283          43.3146       NO       
     CHD4-M-1.32284          20.8881       NO       
     CHD4-M-1.32285          35.5573       NO       
     CHD4-M-1.32287          25.4695       NO       
     CHD4-M-1.32289          32.1588       NO       
     CHD4-M-1.32290          37.6466       NO       
     CHD4-M-1.32618          34.5852       NO       
     CHD4-M-1.32619          43.6526       NO       
     CHD4-M-1.32625          32.1998       NO       
     CHD4-M-1.32635          29.7773       NO       
     CHD4-M-1.32642          35.6065       NO       
     CHD4-M-1.32644          18.8417       NO       
     CHD4-M-1.32645          26.9125       NO       
     CHD4-M-1.32646          38.6774       NO       
     CHD4-M-1.32648          43.3146       NO       
     CHD4-M-1.32649          20.8881       NO       
     CHD4-M-1.32650          35.5573       NO       
     CHD4-M-1.32652          25.4695       NO       
     CHD4-M-1.32654          32.1588       NO       
     CHD4-M-1.32655          37.6466       NO       
     CHD4-M-1.32983          34.5852       NO       
     CHD4-M-1.32984          43.6526       NO       
     CHD4-M-1.32990          32.1998       NO       
     CHD4-M-1.33000          29.7773       NO       
     CHD4-M-1.33007          35.6065       NO       
     CHD4-M-1.33009          18.8417       NO       
     CHD4-M-1.33010          26.9125       NO       
     CHD4-M-1.33011          38.6774       NO       
     CHD4-M-1.33013          43.3146       NO       
     CHD4-M-1.33014          20.8881       NO       
     CHD4-M-1.33015          35.5573       NO       
     CHD4-M-1.33017          25.4695       NO       
     CHD4-M-1.33019          32.1588       NO       
     CHD4-M-1.33020          37.6466       NO       
     CHD4-M-1.33348          34.5852       NO       
     CHD4-M-1.33349          43.6526       NO       
     CHD4-M-1.33355          32.1998       NO       
     CHD4-M-1.33365          29.7773       NO       
     CHD4-M-1.33372          35.6065       NO       
     CHD4-M-1.33374          18.8417       NO       
     CHD4-M-1.33375          26.9125       NO       
     CHD4-M-1.33376          38.6774       NO       
     CHD4-M-1.33378          43.3146       NO       
     CHD4-M-1.33379          20.8881       NO       
     CHD4-M-1.33380          35.5573       NO       
     CHD4-M-1.33382          25.4695       NO       
     CHD4-M-1.33384          32.1588       NO       
     CHD4-M-1.33385          37.6466       NO       
  
  
  *Step, name=Step-1, nlgeom=YES, amplitude=STEP, inc=100000
  *output, field, numberinterval=100
  *output, history, variable=PRESELECT
  *Step, name=Step-1, nlgeom=YES, amplitude=STEP, inc=100000
  *Step, name=Step-1, nlgeom=YES, amplitude=STEP, inc=100000
  *static
  *boundary
  *boundary, amplitude=AMP-1
  *output, field, numberinterval=100
  *nodeoutput
  *output, history, variable=PRESELECT
  *endstep

 ***WARNING: OUTPUT AT EXACT, PREDEFINED TIME POINTS WAS REQUESTED IN THIS 
             STEP. IN ORDER TO WRITE OUTPUT AT EXACT TIME POINTS SPECIFIED, 
             Abaqus MIGHT USE TIME INCREMENTS SMALLER THAN THE MINIMUM TIME 
             INCREMENT ALLOWED IN THE STEP. IN ADDITION, THE NUMBER OF 
             INCREMENTS REQUIRED TO COMPLETE THE STEP WILL IN GENERAL INCREASE.
  *boundary
  *boundary
  *Step, name=Step-1, nlgeom=YES, amplitude=STEP, inc=100000
  *static
  *boundary
  *boundary, amplitude=AMP-1
  *endstep

 ***WARNING: Boundary conditions are specified on inactive dof 4 at 351 nodes. 
             The nodes have been identified in node set WarnNodeBCInactiveDof4.

 ***WARNING: Boundary conditions are specified on inactive dof 5 at 351 nodes. 
             The nodes have been identified in node set WarnNodeBCInactiveDof5.

 ***WARNING: Boundary conditions are specified on inactive dof 6 at 351 nodes. 
             The nodes have been identified in node set WarnNodeBCInactiveDof6.



                            P R O B L E M   S I Z E


          NUMBER OF ELEMENTS IS                                 33395
          NUMBER OF NODES IS                                    42039
          NUMBER OF NODES DEFINED BY THE USER                   42039
          TOTAL NUMBER OF VARIABLES IN THE MODEL               126117
          (DEGREES OF FREEDOM PLUS MAX NO. OF ANY LAGRANGE MULTIPLIER
           VARIABLES. INCLUDE *PRINT,SOLVE=YES TO GET THE ACTUAL NUMBER.)



                              END OF USER INPUT PROCESSING



     JOB TIME SUMMARY
       USER TIME (SEC)      =      1.1    
       SYSTEM TIME (SEC)    =     0.10    
       TOTAL CPU TIME (SEC) =      1.2    
       WALLCLOCK TIME (SEC) =            1
1

   Abaqus 2023.HF4                                  Date 09-Jun-2024   Time 17:20:47
   For use by AALTO UNIVERSITY under license from Dassault Systemes or its subsidiary.

                                                                                               STEP    1  INCREMENT    1
                                                                                          TIME COMPLETED IN THIS STEP   0.00    


                        S T E P       1     S T A T I C   A N A L Y S I S


                                                                                          

     AUTOMATIC TIME CONTROL WITH -
          A SUGGESTED INITIAL TIME INCREMENT OF                 10.0    
          AND A TOTAL TIME PERIOD OF                           1.000E+03
          THE MINIMUM TIME INCREMENT ALLOWED IS                1.000E-05
          THE MAXIMUM TIME INCREMENT ALLOWED IS                 10.0    

     LINEAR EQUATION SOLVER TYPE         DIRECT SPARSE

          LARGE DISPLACEMENT THEORY WILL BE USED
  
                   M E M O R Y   E S T I M A T E
  
 PROCESS      FLOATING PT       MINIMUM MEMORY        MEMORY TO
              OPERATIONS           REQUIRED          MINIMIZE I/O
             PER ITERATION           (MB)               (MB)
  
     1          3.69E+10               91                611
  
 NOTE:
      (1) SINCE ABAQUS DOES NOT PRE-ALLOCATE MEMORY AND ONLY ALLOCATES MEMORY AS NEEDED DURING THE ANALYSIS,
          THE MEMORY REQUIREMENT PRINTED HERE CAN ONLY BE VIEWED AS A GENERAL GUIDELINE BASED ON THE BEST
          KNOWLEDGE AVAILABLE AT THE BEGINNING OF A STEP BEFORE THE SOLUTION PROCESS HAS BEGUN.
      (2) THE ESTIMATE IS NORMALLY UPDATED AT THE BEGINNING OF EVERY STEP. IT IS THE MAXIMUM VALUE OF THE
          ESTIMATE FROM THE CURRENT STEP TO THE LAST STEP OF THE ANALYSIS, WITH UNSYMMETRIC SOLUTION TAKEN
          INTO ACCOUNT IF APPLICABLE. 
      (3) SINCE THE ESTIMATE IS BASED ON THE ACTIVE DEGREES OF FREEDOM IN THE FIRST ITERATION OF THE 
          CURRENT STEP, THE MEMORY ESTIMATE MIGHT BE SIGNIFICANTLY DIFFERENT THAN ACTUAL USAGE FOR 
          PROBLEMS WITH SUBSTANTIAL CHANGES IN ACTIVE DEGREES OF FREEDOM BETWEEN STEPS (OR EVEN WITHIN
          THE SAME STEP). EXAMPLES ARE: PROBLEMS WITH SIGNIFICANT CONTACT CHANGES, PROBLEMS WITH MODEL
          CHANGE, PROBLEMS WITH BOTH STATIC STEP AND STEADY STATE DYNAMIC PROCEDURES WHERE ACOUSTIC 
          ELEMENTS WILL ONLY BE ACTIVATED IN THE STEADY STATE DYNAMIC STEPS.
      (4) FOR MULTI-PROCESS EXECUTION, THE ESTIMATED VALUE OF FLOATING POINT OPERATIONS FOR EACH PROCESS
          IS BASED ON AN INITIAL SCHEDULING OF OPERATIONS AND MIGHT NOT REFLECT THE ACTUAL FLOATING 
          POINT OPERATIONS COMPLETED ON EACH PROCESS. OPERATIONS ARE DYNAMICALLY BALANCED DURING EXECUTION, 
          SO THE ACTUAL BALANCE OF OPERATIONS BETWEEN PROCESSES IS EXPECTED TO BE BETTER THAN THE ESTIMATE
          PRINTED HERE.
      (5) THE UPPER LIMIT OF MEMORY THAT CAN BE ALLOCATED BY ABAQUS WILL IN GENERAL DEPEND ON THE VALUE OF
          THE "MEMORY" PARAMETER AND THE AMOUNT OF PHYSICAL MEMORY AVAILABLE ON THE MACHINE. PLEASE SEE
          THE "ABAQUS ANALYSIS USER'S MANUAL" FOR MORE DETAILS. THE ACTUAL USAGE OF MEMORY AND OF DISK
          SPACE FOR SCRATCH DATA WILL DEPEND ON THIS UPPER LIMIT AS WELL AS THE MEMORY REQUIRED TO MINIMIZE
          I/O. IF THE MEMORY UPPER LIMIT IS GREATER THAN THE MEMORY REQUIRED TO MINIMIZE I/O, THEN THE ACTUAL
          MEMORY USAGE WILL BE CLOSE TO THE ESTIMATED "MEMORY TO MINIMIZE I/O" VALUE, AND THE SCRATCH DISK
          USAGE WILL BE CLOSE-TO-ZERO; OTHERWISE, THE ACTUAL MEMORY USED WILL BE CLOSE TO THE PREVIOUSLY
          MENTIONED MEMORY LIMIT, AND THE SCRATCH DISK USAGE WILL BE ROUGHLY PROPORTIONAL TO THE DIFFERENCE
          BETWEEN THE ESTIMATED "MEMORY TO MINIMIZE I/O" AND THE MEMORY UPPER LIMIT. HOWEVER ACCURATE
          ESTIMATE OF THE SCRATCH DISK SPACE IS NOT POSSIBLE.
      (6) USING "*RESTART, WRITE" CAN GENERATE A LARGE AMOUNT OF DATA WRITTEN IN THE WORK DIRECTORY.


          THE ANALYSIS HAS BEEN COMPLETED



                              ANALYSIS COMPLETE
                              WITH      5 WARNING MESSAGES ON THE DAT FILE



     JOB TIME SUMMARY
       USER TIME (SEC)      =     1.27E+03
       SYSTEM TIME (SEC)    =      20.    
       TOTAL CPU TIME (SEC) =     1.29E+03
       WALLCLOCK TIME (SEC) =          283
