1

   Abaqus 2023.HF4                                  Date 30-Jun-2024   Time 19:15:17
   For use by AALTO UNIVERSITY under license from Dassault Systemes or its subsidiary.

                                                                                 
                                                                                 
 STEP    1     INCREMENT     1     STEP TIME    0.00    


                        S T E P       1     C O U P L E D - T E M P E R A T U R E - D I S P L A C E M E N T   A N A L Y S I S


                                                                                          

     AUTOMATIC TIME CONTROL WITH -
          A SUGGESTED INITIAL TIME INCREMENT OF                 10.0    
          AND A TOTAL TIME PERIOD OF                           1.000E+03
          THE MINIMUM TIME INCREMENT ALLOWED IS                1.000E-02
          THE MAXIMUM TIME INCREMENT ALLOWED IS                 10.0    

          CREEP AND SWELLING EFFECTS ARE OMITTED IN THIS STEP

     THE SIZE OF THE TIME INCREMENT IS CONTROLLED BY -
          THE TEMPERATURE CHANGE PER INCREMENT NOT EXCEEDING            1.00    
          THE RATE DEPENDENCY WILL BE CONSIDERED IN THIS STEP

          CREEP AND SWELLING EFFECTS WILL BE IGNORED.

 CONVERGENCE TOLERANCE PARAMETERS FOR FORCE    
     CRITERION FOR RESIDUAL FORCE     FOR A NONLINEAR PROBLEM          5.000E-03
     CRITERION FOR DISP.    CORRECTION IN A NONLINEAR PROBLEM          1.000E-02
     INITIAL VALUE OF TIME AVERAGE FORCE                               1.000E-02
     AVERAGE FORCE     IS TIME AVERAGE FORCE    
     ALTERNATE CRIT. FOR RESIDUAL FORCE     FOR A NONLINEAR PROBLEM    2.000E-02
     CRITERION FOR ZERO FORCE     RELATIVE TO TIME AVRG. FORCE         1.000E-05
     CRITERION FOR RESIDUAL FORCE     WHEN THERE IS ZERO FLUX          1.000E-05
     CRITERION FOR DISP.    CORRECTION WHEN THERE IS ZERO FLUX         1.000E-03
     CRITERION FOR RESIDUAL FORCE     FOR A LINEAR INCREMENT           1.000E-08
     FIELD CONVERSION RATIO                                             1.00    
     CRITERION FOR ZERO FORCE     REL. TO TIME AVRG. MAX. FORCE        1.000E-05
     CRITERION FOR ZERO DISP.    RELATIVE TO CHARACTERISTIC LENGTH     1.000E-08

 CONVERGENCE TOLERANCE PARAMETERS FOR HEAT FLUX
     CRITERION FOR RESIDUAL HEAT FLUX FOR A NONLINEAR PROBLEM          5.000E-03
     CRITERION FOR TEMP.    CORRECTION IN A NONLINEAR PROBLEM          1.000E-02
     INITIAL VALUE OF TIME AVERAGE HEAT FLUX                           1.000E-02
     AVERAGE HEAT FLUX IS TIME AVERAGE HEAT FLUX
     ALTERNATE CRIT. FOR RESIDUAL HEAT FLUX FOR A NONLINEAR PROBLEM    2.000E-02
     CRITERION FOR ZERO HEAT FLUX RELATIVE TO TIME AVRG. HEAT FLUX     1.000E-05
     CRITERION FOR RESIDUAL HEAT FLUX WHEN THERE IS ZERO FLUX          1.000E-05
     CRITERION FOR TEMP.    CORRECTION WHEN THERE IS ZERO FLUX         1.000E-03
     CRITERION FOR RESIDUAL HEAT FLUX FOR A LINEAR INCREMENT           1.000E-08
     FIELD CONVERSION RATIO                                             1.00    
     CRITERION FOR ZERO HEAT FLUX REL. TO TIME AVRG. MAX. HEAT FLUX    1.000E-05

     VOLUMETRIC STRAIN COMPATIBILITY TOLERANCE FOR HYBRID SOLIDS       1.000E-05
     AXIAL STRAIN COMPATIBILITY TOLERANCE FOR HYBRID BEAMS             1.000E-05
     TRANS. SHEAR STRAIN COMPATIBILITY TOLERANCE FOR HYBRID BEAMS      1.000E-05
     SOFT CONTACT CONSTRAINT COMPATIBILITY TOLERANCE FOR P>P0          5.000E-03
     SOFT CONTACT CONSTRAINT COMPATIBILITY TOLERANCE FOR P=0.0         0.100    
     CONTACT FORCE ERROR TOLERANCE FOR CONVERT SDI=YES                 1.00    
     DISPLACEMENT COMPATIBILITY TOLERANCE FOR DCOUP ELEMENTS           1.000E-05
     ROTATION COMPATIBILITY TOLERANCE FOR DCOUP ELEMENTS               1.000E-05

 EQUILIBRIUM WILL BE CHECKED FOR SEVERE DISCONTINUITY ITERATIONS

 TIME INCREMENTATION CONTROL PARAMETERS:
     FIRST EQUILIBRIUM ITERATION FOR CONSECUTIVE DIVERGENCE CHECK              4
     EQUILIBRIUM ITERATION AT WHICH LOG. CONVERGENCE RATE CHECK BEGINS         8
     EQUILIBRIUM ITERATION AFTER WHICH ALTERNATE RESIDUAL IS USED              9
     MAXIMUM EQUILIBRIUM ITERATIONS ALLOWED                                   16
     EQUILIBRIUM ITERATION COUNT FOR CUT-BACK IN NEXT INCREMENT               10
     MAXIMUM EQUILIB. ITERS IN TWO INCREMENTS FOR TIME INCREMENT INCREASE      4
     MAXIMUM ITERATIONS FOR SEVERE DISCONTINUITIES                            50
     MAXIMUM ATTEMPTS ALLOWED IN AN INCREMENT                                  5
     MAXIMUM DISCON. ITERS IN TWO INCREMENTS FOR TIME INCREMENT INCREASE      50
     MAXIMUM CONTACT AUGMENTATIONS FOR *SURFACE BEHAVIOR,AUGMENTED LAGRANGE   50
     CONSECUTIVE INCS MEETING TIME INTEG. TOL. FOR TIME INC. INCREASE          3
     CUT-BACK FACTOR AFTER DIVERGENCE                                 0.2500    
     CUT-BACK FACTOR FOR TOO SLOW CONVERGENCE                         0.5000    
     CUT-BACK FACTOR AFTER TOO MANY EQUILIBRIUM ITERATIONS            0.7500    
     CUT-BACK FACTOR AFTER TOO MANY SEVERE DISCONTINUITY ITERATIONS   0.2500    
     CUT-BACK FACTOR AFTER PROBLEMS IN ELEMENT ASSEMBLY               0.2500    
     INCREASE FACTOR AFTER TWO INCREMENTS THAT CONVERGE QUICKLY        1.500    
     MAX. TIME INCREMENT INCREASE FACTOR ALLOWED                       1.500    
     MAX. TIME INCREMENT INCREASE FACTOR ALLOWED (DYNAMICS)            1.250    
     MAX. TIME INCREMENT INCREASE FACTOR ALLOWED (DIFFUSION)           2.000    
     MINIMUM TIME INCREMENT RATIO FOR EXTRAPOLATION TO OCCUR          0.1000    
     CUT-BACK FACTOR WHEN TIME INTEGRATION ACCURACY TOL. EXCEEDED     0.8500    
     MAX. RATIO OF TIME INTEG. MEASURE TO TOL. FOR TIME INC. INCREASE 0.7500    
     INCREASE FACTOR FOR TIME INCREMENT WHEN POSSIBLE                 0.8000    
     MIN. TIME INC. INCREASE FACTOR IN LINEAR TRANSIENT PROBLEMS      0.9500    
     MAX. RATIO OF TIME INCREMENT TO STABILITY LIMIT                   1.000    
     FRACTION OF STABILITY LIMIT FOR NEW TIME INCREMENT               0.9500    
     TIME INCREMENT INCREASE FACTOR BEFORE A TIME POINT                1.000    
     GLOBAL STABILIZATION CONTROL IS NOT USED

          PRINT OF INCREMENT NUMBER, TIME, ETC., EVERY    1  INCREMENTS

     THE MAXIMUM NUMBER OF INCREMENTS IN THIS STEP IS                  100000

          LARGE DISPLACEMENT THEORY WILL BE USED

          UNSYMMETRIC MATRIX STORAGE AND SOLUTION WILL BE USED

     LINEAR EXTRAPOLATION WILL BE USED

     CHARACTERISTIC ELEMENT LENGTH     2.168E-04

     DETAILS REGARDING ACTUAL SOLUTION WAVEFRONT REQUESTED

     DETAILED OUTPUT OF DIAGNOSTICS TO DATABASE REQUESTED

     PRINT OF INCREMENT NUMBER, TIME, ETC., TO THE MESSAGE FILE EVERY     1  INCREMENTS

     ELEMENT OPERATIONS WILL BE CARRIED OUT IN PARALLEL USING   8 THREADS ON 1 DOMAIN

     PARALLEL CONTACT TRACKING ENABLED


     COLLECTING MODEL CONSTRAINT INFORMATION FOR OVERCONSTRAINT CHECKS

     COLLECTING STEP CONSTRAINT INFORMATION FOR OVERCONSTRAINT CHECKS


  INCREMENT     1 STARTS. ATTEMPT NUMBER  1, TIME INCREMENT   10.0    
 
     INITIAL ELEMENT LOAD BALANCE
            DOMAIN    1     THREAD    NUMBER OF ELEMENTS
                              1            7216
                              2            6432
                              3            7008
                              4            7056
                              5            6656
                              6            6752
                              7            6632
                              8            7512
 
	UNSYMMETRIC NEW DIRECT SPARSE SOLVER RUNNING ON
 	1 HOST x 1 MPI RANK PER HOST x 8 THREADS PER RANK
        NUMBER OF EQUATIONS:  259128
        NUMBER OF RHS:        1
        NUMBER OF FLOPS:      5.492e+11
        SOLVER ELAPSED TIME:  2.9s

               CONVERGENCE CHECKS FOR EQUILIBRIUM ITERATION     1


 AVERAGE FORCE                      8.615E-02   TIME AVG. FORCE       8.615E-02
 LARGEST SCALED RESIDUAL FORCE      1.834E-03   AT NODE        937   DOF  3
   INSTANCE: CHD4-M-1                                                                        
  CORRESPONDING RESIDUAL FORCE      1.834E-03
 LARGEST INCREMENT OF DISP.         1.600E-05   AT NODE         15   DOF  2
   INSTANCE: CHD4-M-1                                                                        
 LARGEST CORRECTION TO DISP.        1.600E-05   AT NODE         15   DOF  2
   INSTANCE: CHD4-M-1                                                                        
          FORCE     EQUILIBRIUM NOT ACHIEVED WITHIN TOLERANCE.

 AVERAGE HEAT FLUX                   0.00       TIME AVG. HEAT FLUX   1.000E-02
 ALL HEAT FLUX RESIDUALS ARE ZERO
 ALL TEMP.    INCREMENTS ARE ZERO
 ALL CORRECTION TO TEMP.    ARE ZERO
          THERE IS ZERO HEAT FLUX EVERYWHERE
 
	UNSYMMETRIC NEW DIRECT SPARSE SOLVER RUNNING ON
 	1 HOST x 1 MPI RANK PER HOST x 8 THREADS PER RANK
        NUMBER OF EQUATIONS:  259128
        NUMBER OF RHS:        1
        NUMBER OF FLOPS:      5.492e+11
        SOLVER ELAPSED TIME:  2.9s

               CONVERGENCE CHECKS FOR EQUILIBRIUM ITERATION     2


 AVERAGE FORCE                      8.615E-02   TIME AVG. FORCE       8.615E-02
 LARGEST SCALED RESIDUAL FORCE      1.436E-08   AT NODE       2054   DOF  2
   INSTANCE: CHD4-M-1                                                                        
  CORRESPONDING RESIDUAL FORCE      1.436E-08
 LARGEST INCREMENT OF DISP.         1.600E-05   AT NODE         15   DOF  2
   INSTANCE: CHD4-M-1                                                                        
 LARGEST CORRECTION TO DISP.        7.746E-11   AT NODE        594   DOF  2
   INSTANCE: CHD4-M-1                                                                        
          THE FORCE     EQUILIBRIUM EQUATIONS HAVE CONVERGED

 AVERAGE HEAT FLUX                   0.00       TIME AVG. HEAT FLUX   1.000E-02
 ALL HEAT FLUX RESIDUALS ARE ZERO
 ALL TEMP.    INCREMENTS ARE ZERO
 ALL CORRECTION TO TEMP.    ARE ZERO
          THERE IS ZERO HEAT FLUX EVERYWHERE

 MAXIMUM NON-PRESCRIBED INCREMENT IN TEMPERATURE IS    0.00    

 ITERATION SUMMARY FOR THE INCREMENT:   2 TOTAL ITERATIONS, OF WHICH
   0 ARE SEVERE DISCONTINUITY ITERATIONS AND  2 ARE EQUILIBRIUM ITERATIONS.

 TIME INCREMENT COMPLETED   10.0    ,  FRACTION OF STEP COMPLETED  1.000E-02
 STEP TIME COMPLETED        10.0    ,  TOTAL TIME COMPLETED         10.0    


  INCREMENT     2 STARTS. ATTEMPT NUMBER  1, TIME INCREMENT   10.0    
 
	UNSYMMETRIC NEW DIRECT SPARSE SOLVER RUNNING ON
 	1 HOST x 1 MPI RANK PER HOST x 8 THREADS PER RANK
        NUMBER OF EQUATIONS:  259128
        NUMBER OF RHS:        1
        NUMBER OF FLOPS:      5.492e+11
        SOLVER ELAPSED TIME:  2.9s

               CONVERGENCE CHECKS FOR EQUILIBRIUM ITERATION     1


 AVERAGE FORCE                      0.186       TIME AVG. FORCE       0.136    
 LARGEST SCALED RESIDUAL FORCE      3.073E-08   AT NODE       1502   DOF  3
   INSTANCE: CHD4-M-1                                                                        
  CORRESPONDING RESIDUAL FORCE      3.073E-08
 LARGEST INCREMENT OF DISP.         1.600E-05   AT NODE         15   DOF  2
   INSTANCE: CHD4-M-1                                                                        
 LARGEST CORRECTION TO DISP.        1.474E-10   AT NODE        594   DOF  2
   INSTANCE: CHD4-M-1                                                                        
          THE FORCE     EQUILIBRIUM EQUATIONS HAVE CONVERGED

 AVERAGE HEAT FLUX                   0.00       TIME AVG. HEAT FLUX   1.000E-02
 ALL HEAT FLUX RESIDUALS ARE ZERO
 ALL TEMP.    INCREMENTS ARE ZERO
 ALL CORRECTION TO TEMP.    ARE ZERO
          THERE IS ZERO HEAT FLUX EVERYWHERE

 MAXIMUM NON-PRESCRIBED INCREMENT IN TEMPERATURE IS    0.00    

 ITERATION SUMMARY FOR THE INCREMENT:   1 TOTAL ITERATIONS, OF WHICH
   0 ARE SEVERE DISCONTINUITY ITERATIONS AND  1 ARE EQUILIBRIUM ITERATIONS.

 TIME INCREMENT COMPLETED   10.0    ,  FRACTION OF STEP COMPLETED  2.000E-02
 STEP TIME COMPLETED        20.0    ,  TOTAL TIME COMPLETED         20.0    


  INCREMENT     3 STARTS. ATTEMPT NUMBER  1, TIME INCREMENT   10.0    
 
	UNSYMMETRIC NEW DIRECT SPARSE SOLVER RUNNING ON
 	1 HOST x 1 MPI RANK PER HOST x 8 THREADS PER RANK
        NUMBER OF EQUATIONS:  259128
        NUMBER OF RHS:        1
        NUMBER OF FLOPS:      5.492e+11
        SOLVER ELAPSED TIME:  2.9s

               CONVERGENCE CHECKS FOR EQUILIBRIUM ITERATION     1


 AVERAGE FORCE                      0.278       TIME AVG. FORCE       0.183    
 LARGEST SCALED RESIDUAL FORCE     -3.072E-08   AT NODE       1173   DOF  3
   INSTANCE: CHD4-M-1                                                                        
  CORRESPONDING RESIDUAL FORCE     -3.072E-08
 LARGEST INCREMENT OF DISP.         1.600E-05   AT NODE         15   DOF  2
   INSTANCE: CHD4-M-1                                                                        
 LARGEST CORRECTION TO DISP.        1.474E-10   AT NODE        501   DOF  2
   INSTANCE: CHD4-M-1                                                                        
          THE FORCE     EQUILIBRIUM EQUATIONS HAVE CONVERGED

 AVERAGE HEAT FLUX                   0.00       TIME AVG. HEAT FLUX   1.000E-02
 ALL HEAT FLUX RESIDUALS ARE ZERO
 ALL TEMP.    INCREMENTS ARE ZERO
 ALL CORRECTION TO TEMP.    ARE ZERO
          THERE IS ZERO HEAT FLUX EVERYWHERE

 MAXIMUM NON-PRESCRIBED INCREMENT IN TEMPERATURE IS    0.00    

 ITERATION SUMMARY FOR THE INCREMENT:   1 TOTAL ITERATIONS, OF WHICH
   0 ARE SEVERE DISCONTINUITY ITERATIONS AND  1 ARE EQUILIBRIUM ITERATIONS.

 TIME INCREMENT COMPLETED   10.0    ,  FRACTION OF STEP COMPLETED  3.000E-02
 STEP TIME COMPLETED        30.0    ,  TOTAL TIME COMPLETED         30.0    


  INCREMENT     4 STARTS. ATTEMPT NUMBER  1, TIME INCREMENT   10.0    
 
	UNSYMMETRIC NEW DIRECT SPARSE SOLVER RUNNING ON
 	1 HOST x 1 MPI RANK PER HOST x 8 THREADS PER RANK
        NUMBER OF EQUATIONS:  259128
        NUMBER OF RHS:        1
        NUMBER OF FLOPS:      5.492e+11
        SOLVER ELAPSED TIME:  3.0s

               CONVERGENCE CHECKS FOR EQUILIBRIUM ITERATION     1


 AVERAGE FORCE                      0.371       TIME AVG. FORCE       0.230    
 LARGEST SCALED RESIDUAL FORCE      3.071E-08   AT NODE       1502   DOF  3
   INSTANCE: CHD4-M-1                                                                        
  CORRESPONDING RESIDUAL FORCE      3.071E-08
 LARGEST INCREMENT OF DISP.         1.600E-05   AT NODE         15   DOF  2
   INSTANCE: CHD4-M-1                                                                        
 LARGEST CORRECTION TO DISP.        1.474E-10   AT NODE        594   DOF  2
   INSTANCE: CHD4-M-1                                                                        
          THE FORCE     EQUILIBRIUM EQUATIONS HAVE CONVERGED

 AVERAGE HEAT FLUX                   0.00       TIME AVG. HEAT FLUX   1.000E-02
 ALL HEAT FLUX RESIDUALS ARE ZERO
 ALL TEMP.    INCREMENTS ARE ZERO
 ALL CORRECTION TO TEMP.    ARE ZERO
          THERE IS ZERO HEAT FLUX EVERYWHERE

 MAXIMUM NON-PRESCRIBED INCREMENT IN TEMPERATURE IS    0.00    

 ITERATION SUMMARY FOR THE INCREMENT:   1 TOTAL ITERATIONS, OF WHICH
   0 ARE SEVERE DISCONTINUITY ITERATIONS AND  1 ARE EQUILIBRIUM ITERATIONS.

 TIME INCREMENT COMPLETED   10.0    ,  FRACTION OF STEP COMPLETED  4.000E-02
 STEP TIME COMPLETED        40.0    ,  TOTAL TIME COMPLETED         40.0    


  INCREMENT     5 STARTS. ATTEMPT NUMBER  1, TIME INCREMENT   10.0    
 
	UNSYMMETRIC NEW DIRECT SPARSE SOLVER RUNNING ON
 	1 HOST x 1 MPI RANK PER HOST x 8 THREADS PER RANK
        NUMBER OF EQUATIONS:  259128
        NUMBER OF RHS:        1
        NUMBER OF FLOPS:      5.492e+11
        SOLVER ELAPSED TIME:  3.0s

               CONVERGENCE CHECKS FOR EQUILIBRIUM ITERATION     1


 AVERAGE FORCE                      0.464       TIME AVG. FORCE       0.277    
 LARGEST SCALED RESIDUAL FORCE     -3.070E-08   AT NODE       1173   DOF  3
   INSTANCE: CHD4-M-1                                                                        
  CORRESPONDING RESIDUAL FORCE     -3.070E-08
 LARGEST INCREMENT OF DISP.         1.600E-05   AT NODE         15   DOF  2
   INSTANCE: CHD4-M-1                                                                        
 LARGEST CORRECTION TO DISP.        1.474E-10   AT NODE        501   DOF  2
   INSTANCE: CHD4-M-1                                                                        
          THE FORCE     EQUILIBRIUM EQUATIONS HAVE CONVERGED

 AVERAGE HEAT FLUX                   0.00       TIME AVG. HEAT FLUX   1.000E-02
 ALL HEAT FLUX RESIDUALS ARE ZERO
 ALL TEMP.    INCREMENTS ARE ZERO
 ALL CORRECTION TO TEMP.    ARE ZERO
          THERE IS ZERO HEAT FLUX EVERYWHERE

 MAXIMUM NON-PRESCRIBED INCREMENT IN TEMPERATURE IS    0.00    

 ITERATION SUMMARY FOR THE INCREMENT:   1 TOTAL ITERATIONS, OF WHICH
   0 ARE SEVERE DISCONTINUITY ITERATIONS AND  1 ARE EQUILIBRIUM ITERATIONS.

 TIME INCREMENT COMPLETED   10.0    ,  FRACTION OF STEP COMPLETED  5.000E-02
 STEP TIME COMPLETED        50.0    ,  TOTAL TIME COMPLETED         50.0    


  INCREMENT     6 STARTS. ATTEMPT NUMBER  1, TIME INCREMENT   10.0    
 
	UNSYMMETRIC NEW DIRECT SPARSE SOLVER RUNNING ON
 	1 HOST x 1 MPI RANK PER HOST x 8 THREADS PER RANK
        NUMBER OF EQUATIONS:  259128
        NUMBER OF RHS:        1
        NUMBER OF FLOPS:      5.492e+11
        SOLVER ELAPSED TIME:  3.0s

               CONVERGENCE CHECKS FOR EQUILIBRIUM ITERATION     1


 AVERAGE FORCE                      0.556       TIME AVG. FORCE       0.323    
 LARGEST SCALED RESIDUAL FORCE      3.069E-08   AT NODE       1502   DOF  3
   INSTANCE: CHD4-M-1                                                                        
  CORRESPONDING RESIDUAL FORCE      3.069E-08
 LARGEST INCREMENT OF DISP.         1.600E-05   AT NODE         15   DOF  2
   INSTANCE: CHD4-M-1                                                                        
 LARGEST CORRECTION TO DISP.        1.474E-10   AT NODE        594   DOF  2
   INSTANCE: CHD4-M-1                                                                        
          THE FORCE     EQUILIBRIUM EQUATIONS HAVE CONVERGED

 AVERAGE HEAT FLUX                   0.00       TIME AVG. HEAT FLUX   1.000E-02
 ALL HEAT FLUX RESIDUALS ARE ZERO
 ALL TEMP.    INCREMENTS ARE ZERO
 ALL CORRECTION TO TEMP.    ARE ZERO
          THERE IS ZERO HEAT FLUX EVERYWHERE

 MAXIMUM NON-PRESCRIBED INCREMENT IN TEMPERATURE IS    0.00    

 ITERATION SUMMARY FOR THE INCREMENT:   1 TOTAL ITERATIONS, OF WHICH
   0 ARE SEVERE DISCONTINUITY ITERATIONS AND  1 ARE EQUILIBRIUM ITERATIONS.

 TIME INCREMENT COMPLETED   10.0    ,  FRACTION OF STEP COMPLETED  6.000E-02
 STEP TIME COMPLETED        60.0    ,  TOTAL TIME COMPLETED         60.0    


  INCREMENT     7 STARTS. ATTEMPT NUMBER  1, TIME INCREMENT   10.0    
 
	UNSYMMETRIC NEW DIRECT SPARSE SOLVER RUNNING ON
 	1 HOST x 1 MPI RANK PER HOST x 8 THREADS PER RANK
        NUMBER OF EQUATIONS:  259128
        NUMBER OF RHS:        1
        NUMBER OF FLOPS:      5.492e+11
        SOLVER ELAPSED TIME:  3.0s

               CONVERGENCE CHECKS FOR EQUILIBRIUM ITERATION     1


 AVERAGE FORCE                      0.649       TIME AVG. FORCE       0.370    
 LARGEST SCALED RESIDUAL FORCE     -3.068E-08   AT NODE       1173   DOF  3
   INSTANCE: CHD4-M-1                                                                        
  CORRESPONDING RESIDUAL FORCE     -3.068E-08
 LARGEST INCREMENT OF DISP.         1.600E-05   AT NODE         15   DOF  2
   INSTANCE: CHD4-M-1                                                                        
 LARGEST CORRECTION TO DISP.        1.474E-10   AT NODE        501   DOF  2
   INSTANCE: CHD4-M-1                                                                        
          THE FORCE     EQUILIBRIUM EQUATIONS HAVE CONVERGED

 AVERAGE HEAT FLUX                   0.00       TIME AVG. HEAT FLUX   1.000E-02
 ALL HEAT FLUX RESIDUALS ARE ZERO
 ALL TEMP.    INCREMENTS ARE ZERO
 ALL CORRECTION TO TEMP.    ARE ZERO
          THERE IS ZERO HEAT FLUX EVERYWHERE

 MAXIMUM NON-PRESCRIBED INCREMENT IN TEMPERATURE IS    0.00    

 ITERATION SUMMARY FOR THE INCREMENT:   1 TOTAL ITERATIONS, OF WHICH
   0 ARE SEVERE DISCONTINUITY ITERATIONS AND  1 ARE EQUILIBRIUM ITERATIONS.

 TIME INCREMENT COMPLETED   10.0    ,  FRACTION OF STEP COMPLETED  7.000E-02
 STEP TIME COMPLETED        70.0    ,  TOTAL TIME COMPLETED         70.0    


  INCREMENT     8 STARTS. ATTEMPT NUMBER  1, TIME INCREMENT   10.0    
 
	UNSYMMETRIC NEW DIRECT SPARSE SOLVER RUNNING ON
 	1 HOST x 1 MPI RANK PER HOST x 8 THREADS PER RANK
        NUMBER OF EQUATIONS:  259128
        NUMBER OF RHS:        1
        NUMBER OF FLOPS:      5.492e+11
        SOLVER ELAPSED TIME:  3.0s

               CONVERGENCE CHECKS FOR EQUILIBRIUM ITERATION     1


 AVERAGE FORCE                      0.742       TIME AVG. FORCE       0.416    
 LARGEST SCALED RESIDUAL FORCE      3.068E-08   AT NODE       1502   DOF  3
   INSTANCE: CHD4-M-1                                                                        
  CORRESPONDING RESIDUAL FORCE      3.068E-08
 LARGEST INCREMENT OF DISP.         1.600E-05   AT NODE         15   DOF  2
   INSTANCE: CHD4-M-1                                                                        
 LARGEST CORRECTION TO DISP.        1.474E-10   AT NODE        594   DOF  2
   INSTANCE: CHD4-M-1                                                                        
          THE FORCE     EQUILIBRIUM EQUATIONS HAVE CONVERGED

 AVERAGE HEAT FLUX                   0.00       TIME AVG. HEAT FLUX   1.000E-02
 ALL HEAT FLUX RESIDUALS ARE ZERO
 ALL TEMP.    INCREMENTS ARE ZERO
 ALL CORRECTION TO TEMP.    ARE ZERO
          THERE IS ZERO HEAT FLUX EVERYWHERE

 MAXIMUM NON-PRESCRIBED INCREMENT IN TEMPERATURE IS    0.00    

 ITERATION SUMMARY FOR THE INCREMENT:   1 TOTAL ITERATIONS, OF WHICH
   0 ARE SEVERE DISCONTINUITY ITERATIONS AND  1 ARE EQUILIBRIUM ITERATIONS.

 TIME INCREMENT COMPLETED   10.0    ,  FRACTION OF STEP COMPLETED  8.000E-02
 STEP TIME COMPLETED        80.0    ,  TOTAL TIME COMPLETED         80.0    


  INCREMENT     9 STARTS. ATTEMPT NUMBER  1, TIME INCREMENT   10.0    
 
	UNSYMMETRIC NEW DIRECT SPARSE SOLVER RUNNING ON
 	1 HOST x 1 MPI RANK PER HOST x 8 THREADS PER RANK
        NUMBER OF EQUATIONS:  259128
        NUMBER OF RHS:        1
        NUMBER OF FLOPS:      5.492e+11
        SOLVER ELAPSED TIME:  2.9s

               CONVERGENCE CHECKS FOR EQUILIBRIUM ITERATION     1


 AVERAGE FORCE                      0.834       TIME AVG. FORCE       0.463    
 LARGEST SCALED RESIDUAL FORCE     -3.067E-08   AT NODE       1173   DOF  3
   INSTANCE: CHD4-M-1                                                                        
  CORRESPONDING RESIDUAL FORCE     -3.067E-08
 LARGEST INCREMENT OF DISP.         1.600E-05   AT NODE         15   DOF  2
   INSTANCE: CHD4-M-1                                                                        
 LARGEST CORRECTION TO DISP.        1.474E-10   AT NODE        501   DOF  2
   INSTANCE: CHD4-M-1                                                                        
          THE FORCE     EQUILIBRIUM EQUATIONS HAVE CONVERGED

 AVERAGE HEAT FLUX                   0.00       TIME AVG. HEAT FLUX   1.000E-02
 ALL HEAT FLUX RESIDUALS ARE ZERO
 ALL TEMP.    INCREMENTS ARE ZERO
 ALL CORRECTION TO TEMP.    ARE ZERO
          THERE IS ZERO HEAT FLUX EVERYWHERE

 MAXIMUM NON-PRESCRIBED INCREMENT IN TEMPERATURE IS    0.00    

 ITERATION SUMMARY FOR THE INCREMENT:   1 TOTAL ITERATIONS, OF WHICH
   0 ARE SEVERE DISCONTINUITY ITERATIONS AND  1 ARE EQUILIBRIUM ITERATIONS.

 TIME INCREMENT COMPLETED   10.0    ,  FRACTION OF STEP COMPLETED  9.000E-02
 STEP TIME COMPLETED        90.0    ,  TOTAL TIME COMPLETED         90.0    


  INCREMENT    10 STARTS. ATTEMPT NUMBER  1, TIME INCREMENT   10.0    
 
	UNSYMMETRIC NEW DIRECT SPARSE SOLVER RUNNING ON
 	1 HOST x 1 MPI RANK PER HOST x 8 THREADS PER RANK
        NUMBER OF EQUATIONS:  259128
        NUMBER OF RHS:        1
        NUMBER OF FLOPS:      5.492e+11
        SOLVER ELAPSED TIME:  3.0s

               CONVERGENCE CHECKS FOR EQUILIBRIUM ITERATION     1


 AVERAGE FORCE                      0.927       TIME AVG. FORCE       0.509    
 LARGEST SCALED RESIDUAL FORCE     -3.066E-08   AT NODE       1173   DOF  3
   INSTANCE: CHD4-M-1                                                                        
  CORRESPONDING RESIDUAL FORCE     -3.066E-08
 LARGEST INCREMENT OF DISP.         1.600E-05   AT NODE         15   DOF  2
   INSTANCE: CHD4-M-1                                                                        
 LARGEST CORRECTION TO DISP.        1.473E-10   AT NODE        594   DOF  2
   INSTANCE: CHD4-M-1                                                                        
          THE FORCE     EQUILIBRIUM EQUATIONS HAVE CONVERGED

 AVERAGE HEAT FLUX                   0.00       TIME AVG. HEAT FLUX   1.000E-02
 ALL HEAT FLUX RESIDUALS ARE ZERO
 ALL TEMP.    INCREMENTS ARE ZERO
 ALL CORRECTION TO TEMP.    ARE ZERO
          THERE IS ZERO HEAT FLUX EVERYWHERE

 MAXIMUM NON-PRESCRIBED INCREMENT IN TEMPERATURE IS    0.00    

 ITERATION SUMMARY FOR THE INCREMENT:   1 TOTAL ITERATIONS, OF WHICH
   0 ARE SEVERE DISCONTINUITY ITERATIONS AND  1 ARE EQUILIBRIUM ITERATIONS.

 TIME INCREMENT COMPLETED   10.0    ,  FRACTION OF STEP COMPLETED  0.100    
 STEP TIME COMPLETED        100.    ,  TOTAL TIME COMPLETED         100.    


  INCREMENT    11 STARTS. ATTEMPT NUMBER  1, TIME INCREMENT   10.0    
 
	UNSYMMETRIC NEW DIRECT SPARSE SOLVER RUNNING ON
 	1 HOST x 1 MPI RANK PER HOST x 8 THREADS PER RANK
        NUMBER OF EQUATIONS:  259128
        NUMBER OF RHS:        1
        NUMBER OF FLOPS:      5.492e+11
        SOLVER ELAPSED TIME:  2.9s

               CONVERGENCE CHECKS FOR EQUILIBRIUM ITERATION     1


 AVERAGE FORCE                       1.02       TIME AVG. FORCE       0.556    
 LARGEST SCALED RESIDUAL FORCE     -3.065E-08   AT NODE       1173   DOF  3
   INSTANCE: CHD4-M-1                                                                        
  CORRESPONDING RESIDUAL FORCE     -3.065E-08
 LARGEST INCREMENT OF DISP.         1.600E-05   AT NODE         15   DOF  2
   INSTANCE: CHD4-M-1                                                                        
 LARGEST CORRECTION TO DISP.        1.473E-10   AT NODE        594   DOF  2
   INSTANCE: CHD4-M-1                                                                        
          THE FORCE     EQUILIBRIUM EQUATIONS HAVE CONVERGED

 AVERAGE HEAT FLUX                   0.00       TIME AVG. HEAT FLUX   1.000E-02
 ALL HEAT FLUX RESIDUALS ARE ZERO
 ALL TEMP.    INCREMENTS ARE ZERO
 ALL CORRECTION TO TEMP.    ARE ZERO
          THERE IS ZERO HEAT FLUX EVERYWHERE

 MAXIMUM NON-PRESCRIBED INCREMENT IN TEMPERATURE IS    0.00    

 ITERATION SUMMARY FOR THE INCREMENT:   1 TOTAL ITERATIONS, OF WHICH
   0 ARE SEVERE DISCONTINUITY ITERATIONS AND  1 ARE EQUILIBRIUM ITERATIONS.

 TIME INCREMENT COMPLETED   10.0    ,  FRACTION OF STEP COMPLETED  0.110    
 STEP TIME COMPLETED        110.    ,  TOTAL TIME COMPLETED         110.    


  INCREMENT    12 STARTS. ATTEMPT NUMBER  1, TIME INCREMENT   10.0    
 
	UNSYMMETRIC NEW DIRECT SPARSE SOLVER RUNNING ON
 	1 HOST x 1 MPI RANK PER HOST x 8 THREADS PER RANK
        NUMBER OF EQUATIONS:  259128
        NUMBER OF RHS:        1
        NUMBER OF FLOPS:      5.492e+11
        SOLVER ELAPSED TIME:  3.0s

               CONVERGENCE CHECKS FOR EQUILIBRIUM ITERATION     1


 AVERAGE FORCE                       1.11       TIME AVG. FORCE       0.602    
 LARGEST SCALED RESIDUAL FORCE      3.064E-08   AT NODE       1502   DOF  3
   INSTANCE: CHD4-M-1                                                                        
  CORRESPONDING RESIDUAL FORCE      3.064E-08
 LARGEST INCREMENT OF DISP.         1.600E-05   AT NODE         15   DOF  2
   INSTANCE: CHD4-M-1                                                                        
 LARGEST CORRECTION TO DISP.        1.473E-10   AT NODE        594   DOF  2
   INSTANCE: CHD4-M-1                                                                        
          THE FORCE     EQUILIBRIUM EQUATIONS HAVE CONVERGED

 AVERAGE HEAT FLUX                   0.00       TIME AVG. HEAT FLUX   1.000E-02
 ALL HEAT FLUX RESIDUALS ARE ZERO
 ALL TEMP.    INCREMENTS ARE ZERO
 ALL CORRECTION TO TEMP.    ARE ZERO
          THERE IS ZERO HEAT FLUX EVERYWHERE

 MAXIMUM NON-PRESCRIBED INCREMENT IN TEMPERATURE IS    0.00    

 ITERATION SUMMARY FOR THE INCREMENT:   1 TOTAL ITERATIONS, OF WHICH
   0 ARE SEVERE DISCONTINUITY ITERATIONS AND  1 ARE EQUILIBRIUM ITERATIONS.

 TIME INCREMENT COMPLETED   10.0    ,  FRACTION OF STEP COMPLETED  0.120    
 STEP TIME COMPLETED        120.    ,  TOTAL TIME COMPLETED         120.    


  INCREMENT    13 STARTS. ATTEMPT NUMBER  1, TIME INCREMENT   10.0    
 
	UNSYMMETRIC NEW DIRECT SPARSE SOLVER RUNNING ON
 	1 HOST x 1 MPI RANK PER HOST x 8 THREADS PER RANK
        NUMBER OF EQUATIONS:  259128
        NUMBER OF RHS:        1
        NUMBER OF FLOPS:      5.492e+11
        SOLVER ELAPSED TIME:  3.0s

               CONVERGENCE CHECKS FOR EQUILIBRIUM ITERATION     1


 AVERAGE FORCE                       1.20       TIME AVG. FORCE       0.648    
 LARGEST SCALED RESIDUAL FORCE     -3.063E-08   AT NODE       1173   DOF  3
   INSTANCE: CHD4-M-1                                                                        
  CORRESPONDING RESIDUAL FORCE     -3.063E-08
 LARGEST INCREMENT OF DISP.         1.600E-05   AT NODE         15   DOF  2
   INSTANCE: CHD4-M-1                                                                        
 LARGEST CORRECTION TO DISP.        1.473E-10   AT NODE        594   DOF  2
   INSTANCE: CHD4-M-1                                                                        
          THE FORCE     EQUILIBRIUM EQUATIONS HAVE CONVERGED

 AVERAGE HEAT FLUX                   0.00       TIME AVG. HEAT FLUX   1.000E-02
 ALL HEAT FLUX RESIDUALS ARE ZERO
 ALL TEMP.    INCREMENTS ARE ZERO
 ALL CORRECTION TO TEMP.    ARE ZERO
          THERE IS ZERO HEAT FLUX EVERYWHERE

 MAXIMUM NON-PRESCRIBED INCREMENT IN TEMPERATURE IS    0.00    

 ITERATION SUMMARY FOR THE INCREMENT:   1 TOTAL ITERATIONS, OF WHICH
   0 ARE SEVERE DISCONTINUITY ITERATIONS AND  1 ARE EQUILIBRIUM ITERATIONS.

 TIME INCREMENT COMPLETED   10.0    ,  FRACTION OF STEP COMPLETED  0.130    
 STEP TIME COMPLETED        130.    ,  TOTAL TIME COMPLETED         130.    


  INCREMENT    14 STARTS. ATTEMPT NUMBER  1, TIME INCREMENT   10.0    
 
	UNSYMMETRIC NEW DIRECT SPARSE SOLVER RUNNING ON
 	1 HOST x 1 MPI RANK PER HOST x 8 THREADS PER RANK
        NUMBER OF EQUATIONS:  259128
        NUMBER OF RHS:        1
        NUMBER OF FLOPS:      5.492e+11
        SOLVER ELAPSED TIME:  2.9s

               CONVERGENCE CHECKS FOR EQUILIBRIUM ITERATION     1


 AVERAGE FORCE                       1.30       TIME AVG. FORCE       0.695    
 LARGEST SCALED RESIDUAL FORCE     -3.063E-08   AT NODE       1173   DOF  3
   INSTANCE: CHD4-M-1                                                                        
  CORRESPONDING RESIDUAL FORCE     -3.063E-08
 LARGEST INCREMENT OF DISP.         1.600E-05   AT NODE         15   DOF  2
   INSTANCE: CHD4-M-1                                                                        
 LARGEST CORRECTION TO DISP.        1.473E-10   AT NODE        594   DOF  2
   INSTANCE: CHD4-M-1                                                                        
          THE FORCE     EQUILIBRIUM EQUATIONS HAVE CONVERGED

 AVERAGE HEAT FLUX                   0.00       TIME AVG. HEAT FLUX   1.000E-02
 ALL HEAT FLUX RESIDUALS ARE ZERO
 ALL TEMP.    INCREMENTS ARE ZERO
 ALL CORRECTION TO TEMP.    ARE ZERO
          THERE IS ZERO HEAT FLUX EVERYWHERE

 MAXIMUM NON-PRESCRIBED INCREMENT IN TEMPERATURE IS    0.00    

 ITERATION SUMMARY FOR THE INCREMENT:   1 TOTAL ITERATIONS, OF WHICH
   0 ARE SEVERE DISCONTINUITY ITERATIONS AND  1 ARE EQUILIBRIUM ITERATIONS.

 TIME INCREMENT COMPLETED   10.0    ,  FRACTION OF STEP COMPLETED  0.140    
 STEP TIME COMPLETED        140.    ,  TOTAL TIME COMPLETED         140.    


  INCREMENT    15 STARTS. ATTEMPT NUMBER  1, TIME INCREMENT   10.0    
 
	UNSYMMETRIC NEW DIRECT SPARSE SOLVER RUNNING ON
 	1 HOST x 1 MPI RANK PER HOST x 8 THREADS PER RANK
        NUMBER OF EQUATIONS:  259128
        NUMBER OF RHS:        1
        NUMBER OF FLOPS:      5.492e+11
        SOLVER ELAPSED TIME:  2.9s

               CONVERGENCE CHECKS FOR EQUILIBRIUM ITERATION     1


 AVERAGE FORCE                       1.39       TIME AVG. FORCE       0.741    
 LARGEST SCALED RESIDUAL FORCE     -3.062E-08   AT NODE       1173   DOF  3
   INSTANCE: CHD4-M-1                                                                        
  CORRESPONDING RESIDUAL FORCE     -3.062E-08
 LARGEST INCREMENT OF DISP.         1.600E-05   AT NODE         15   DOF  2
   INSTANCE: CHD4-M-1                                                                        
 LARGEST CORRECTION TO DISP.        1.473E-10   AT NODE        594   DOF  2
   INSTANCE: CHD4-M-1                                                                        
          THE FORCE     EQUILIBRIUM EQUATIONS HAVE CONVERGED

 AVERAGE HEAT FLUX                   0.00       TIME AVG. HEAT FLUX   1.000E-02
 ALL HEAT FLUX RESIDUALS ARE ZERO
 ALL TEMP.    INCREMENTS ARE ZERO
 ALL CORRECTION TO TEMP.    ARE ZERO
          THERE IS ZERO HEAT FLUX EVERYWHERE

 MAXIMUM NON-PRESCRIBED INCREMENT IN TEMPERATURE IS    0.00    

 ITERATION SUMMARY FOR THE INCREMENT:   1 TOTAL ITERATIONS, OF WHICH
   0 ARE SEVERE DISCONTINUITY ITERATIONS AND  1 ARE EQUILIBRIUM ITERATIONS.

 TIME INCREMENT COMPLETED   10.0    ,  FRACTION OF STEP COMPLETED  0.150    
 STEP TIME COMPLETED        150.    ,  TOTAL TIME COMPLETED         150.    


  INCREMENT    16 STARTS. ATTEMPT NUMBER  1, TIME INCREMENT   10.0    
 
	UNSYMMETRIC NEW DIRECT SPARSE SOLVER RUNNING ON
 	1 HOST x 1 MPI RANK PER HOST x 8 THREADS PER RANK
        NUMBER OF EQUATIONS:  259128
        NUMBER OF RHS:        1
        NUMBER OF FLOPS:      5.492e+11
        SOLVER ELAPSED TIME:  3.0s

               CONVERGENCE CHECKS FOR EQUILIBRIUM ITERATION     1


 AVERAGE FORCE                       1.48       TIME AVG. FORCE       0.787    
 LARGEST SCALED RESIDUAL FORCE     -3.061E-08   AT NODE       1173   DOF  3
   INSTANCE: CHD4-M-1                                                                        
  CORRESPONDING RESIDUAL FORCE     -3.061E-08
 LARGEST INCREMENT OF DISP.         1.600E-05   AT NODE         15   DOF  2
   INSTANCE: CHD4-M-1                                                                        
 LARGEST CORRECTION TO DISP.        1.473E-10   AT NODE        594   DOF  2
   INSTANCE: CHD4-M-1                                                                        
          THE FORCE     EQUILIBRIUM EQUATIONS HAVE CONVERGED

 AVERAGE HEAT FLUX                   0.00       TIME AVG. HEAT FLUX   1.000E-02
 ALL HEAT FLUX RESIDUALS ARE ZERO
 ALL TEMP.    INCREMENTS ARE ZERO
 ALL CORRECTION TO TEMP.    ARE ZERO
          THERE IS ZERO HEAT FLUX EVERYWHERE

 MAXIMUM NON-PRESCRIBED INCREMENT IN TEMPERATURE IS    0.00    

 ITERATION SUMMARY FOR THE INCREMENT:   1 TOTAL ITERATIONS, OF WHICH
   0 ARE SEVERE DISCONTINUITY ITERATIONS AND  1 ARE EQUILIBRIUM ITERATIONS.

 TIME INCREMENT COMPLETED   10.0    ,  FRACTION OF STEP COMPLETED  0.160    
 STEP TIME COMPLETED        160.    ,  TOTAL TIME COMPLETED         160.    


  INCREMENT    17 STARTS. ATTEMPT NUMBER  1, TIME INCREMENT   10.0    
 
	UNSYMMETRIC NEW DIRECT SPARSE SOLVER RUNNING ON
 	1 HOST x 1 MPI RANK PER HOST x 8 THREADS PER RANK
        NUMBER OF EQUATIONS:  259128
        NUMBER OF RHS:        1
        NUMBER OF FLOPS:      5.492e+11
        SOLVER ELAPSED TIME:  2.9s

               CONVERGENCE CHECKS FOR EQUILIBRIUM ITERATION     1


 AVERAGE FORCE                       1.58       TIME AVG. FORCE       0.834    
 LARGEST SCALED RESIDUAL FORCE      3.060E-08   AT NODE       1502   DOF  3
   INSTANCE: CHD4-M-1                                                                        
  CORRESPONDING RESIDUAL FORCE      3.060E-08
 LARGEST INCREMENT OF DISP.         1.600E-05   AT NODE         15   DOF  2
   INSTANCE: CHD4-M-1                                                                        
 LARGEST CORRECTION TO DISP.        1.472E-10   AT NODE        594   DOF  2
   INSTANCE: CHD4-M-1                                                                        
          THE FORCE     EQUILIBRIUM EQUATIONS HAVE CONVERGED

 AVERAGE HEAT FLUX                   0.00       TIME AVG. HEAT FLUX   1.000E-02
 ALL HEAT FLUX RESIDUALS ARE ZERO
 ALL TEMP.    INCREMENTS ARE ZERO
 ALL CORRECTION TO TEMP.    ARE ZERO
          THERE IS ZERO HEAT FLUX EVERYWHERE

 MAXIMUM NON-PRESCRIBED INCREMENT IN TEMPERATURE IS    0.00    

 ITERATION SUMMARY FOR THE INCREMENT:   1 TOTAL ITERATIONS, OF WHICH
   0 ARE SEVERE DISCONTINUITY ITERATIONS AND  1 ARE EQUILIBRIUM ITERATIONS.

 TIME INCREMENT COMPLETED   10.0    ,  FRACTION OF STEP COMPLETED  0.170    
 STEP TIME COMPLETED        170.    ,  TOTAL TIME COMPLETED         170.    


  INCREMENT    18 STARTS. ATTEMPT NUMBER  1, TIME INCREMENT   10.0    
 
	UNSYMMETRIC NEW DIRECT SPARSE SOLVER RUNNING ON
 	1 HOST x 1 MPI RANK PER HOST x 8 THREADS PER RANK
        NUMBER OF EQUATIONS:  259128
        NUMBER OF RHS:        1
        NUMBER OF FLOPS:      5.492e+11
        SOLVER ELAPSED TIME:  3.0s

               CONVERGENCE CHECKS FOR EQUILIBRIUM ITERATION     1


 AVERAGE FORCE                       1.67       TIME AVG. FORCE       0.880    
 LARGEST SCALED RESIDUAL FORCE     -1.388E-03   AT NODE       6838   DOF  2
   INSTANCE: CHD4-M-1                                                                        
  CORRESPONDING RESIDUAL FORCE     -1.388E-03
 LARGEST INCREMENT OF DISP.         1.600E-05   AT NODE         15   DOF  2
   INSTANCE: CHD4-M-1                                                                        
 LARGEST CORRECTION TO DISP.        3.416E-09   AT NODE      20855   DOF  2
   INSTANCE: CHD4-M-1                                                                        
          THE FORCE     EQUILIBRIUM EQUATIONS HAVE CONVERGED

 AVERAGE HEAT FLUX                   0.00       TIME AVG. HEAT FLUX   1.000E-02
 ALL HEAT FLUX RESIDUALS ARE ZERO
 ALL TEMP.    INCREMENTS ARE ZERO
 ALL CORRECTION TO TEMP.    ARE ZERO
          THERE IS ZERO HEAT FLUX EVERYWHERE

 MAXIMUM NON-PRESCRIBED INCREMENT IN TEMPERATURE IS    0.00    

 ITERATION SUMMARY FOR THE INCREMENT:   1 TOTAL ITERATIONS, OF WHICH
   0 ARE SEVERE DISCONTINUITY ITERATIONS AND  1 ARE EQUILIBRIUM ITERATIONS.

 TIME INCREMENT COMPLETED   10.0    ,  FRACTION OF STEP COMPLETED  0.180    
 STEP TIME COMPLETED        180.    ,  TOTAL TIME COMPLETED         180.    


  INCREMENT    19 STARTS. ATTEMPT NUMBER  1, TIME INCREMENT   10.0    
 
	UNSYMMETRIC NEW DIRECT SPARSE SOLVER RUNNING ON
 	1 HOST x 1 MPI RANK PER HOST x 8 THREADS PER RANK
        NUMBER OF EQUATIONS:  259128
        NUMBER OF RHS:        1
        NUMBER OF FLOPS:      5.492e+11
        SOLVER ELAPSED TIME:  3.0s

               CONVERGENCE CHECKS FOR EQUILIBRIUM ITERATION     1


 AVERAGE FORCE                       1.76       TIME AVG. FORCE       0.926    
 LARGEST SCALED RESIDUAL FORCE      1.057E-02   AT NODE      11698   DOF  2
   INSTANCE: CHD4-M-1                                                                        
  CORRESPONDING RESIDUAL FORCE      1.057E-02
 LARGEST INCREMENT OF DISP.         1.600E-05   AT NODE         15   DOF  2
   INSTANCE: CHD4-M-1                                                                        
 LARGEST CORRECTION TO DISP.       -1.349E-08   AT NODE      29057   DOF  3
   INSTANCE: CHD4-M-1                                                                        
          FORCE     EQUILIBRIUM NOT ACHIEVED WITHIN TOLERANCE.

 AVERAGE HEAT FLUX                   0.00       TIME AVG. HEAT FLUX   1.000E-02
 ALL HEAT FLUX RESIDUALS ARE ZERO
 ALL TEMP.    INCREMENTS ARE ZERO
 ALL CORRECTION TO TEMP.    ARE ZERO
          THERE IS ZERO HEAT FLUX EVERYWHERE
 
	UNSYMMETRIC NEW DIRECT SPARSE SOLVER RUNNING ON
 	1 HOST x 1 MPI RANK PER HOST x 8 THREADS PER RANK
        NUMBER OF EQUATIONS:  259128
        NUMBER OF RHS:        1
        NUMBER OF FLOPS:      5.492e+11
        SOLVER ELAPSED TIME:  3.0s

               CONVERGENCE CHECKS FOR EQUILIBRIUM ITERATION     2


 AVERAGE FORCE                       1.76       TIME AVG. FORCE       0.926    
 LARGEST SCALED RESIDUAL FORCE      2.968E-05   AT NODE      22818   DOF  2
   INSTANCE: CHD4-M-1                                                                        
  CORRESPONDING RESIDUAL FORCE      2.968E-05
 LARGEST INCREMENT OF DISP.         1.600E-05   AT NODE         15   DOF  2
   INSTANCE: CHD4-M-1                                                                        
 LARGEST CORRECTION TO DISP.       -3.477E-10   AT NODE      13871   DOF  2
   INSTANCE: CHD4-M-1                                                                        
          THE FORCE     EQUILIBRIUM EQUATIONS HAVE CONVERGED

 AVERAGE HEAT FLUX                   0.00       TIME AVG. HEAT FLUX   1.000E-02
 ALL HEAT FLUX RESIDUALS ARE ZERO
 ALL TEMP.    INCREMENTS ARE ZERO
 ALL CORRECTION TO TEMP.    ARE ZERO
          THERE IS ZERO HEAT FLUX EVERYWHERE

 MAXIMUM NON-PRESCRIBED INCREMENT IN TEMPERATURE IS    0.00    

 ITERATION SUMMARY FOR THE INCREMENT:   2 TOTAL ITERATIONS, OF WHICH
   0 ARE SEVERE DISCONTINUITY ITERATIONS AND  2 ARE EQUILIBRIUM ITERATIONS.

 TIME INCREMENT COMPLETED   10.0    ,  FRACTION OF STEP COMPLETED  0.190    
 STEP TIME COMPLETED        190.    ,  TOTAL TIME COMPLETED         190.    


  INCREMENT    20 STARTS. ATTEMPT NUMBER  1, TIME INCREMENT   10.0    
 
	UNSYMMETRIC NEW DIRECT SPARSE SOLVER RUNNING ON
 	1 HOST x 1 MPI RANK PER HOST x 8 THREADS PER RANK
        NUMBER OF EQUATIONS:  259128
        NUMBER OF RHS:        1
        NUMBER OF FLOPS:      5.492e+11
        SOLVER ELAPSED TIME:  3.1s

               CONVERGENCE CHECKS FOR EQUILIBRIUM ITERATION     1


 AVERAGE FORCE                       1.85       TIME AVG. FORCE       0.973    
 LARGEST SCALED RESIDUAL FORCE     -2.413E-03   AT NODE      25251   DOF  2
   INSTANCE: CHD4-M-1                                                                        
  CORRESPONDING RESIDUAL FORCE     -2.413E-03
 LARGEST INCREMENT OF DISP.         1.600E-05   AT NODE         15   DOF  2
   INSTANCE: CHD4-M-1                                                                        
 LARGEST CORRECTION TO DISP.        1.373E-08   AT NODE      22210   DOF  2
   INSTANCE: CHD4-M-1                                                                        
          THE FORCE     EQUILIBRIUM EQUATIONS HAVE CONVERGED

 AVERAGE HEAT FLUX                   0.00       TIME AVG. HEAT FLUX   1.000E-02
 ALL HEAT FLUX RESIDUALS ARE ZERO
 ALL TEMP.    INCREMENTS ARE ZERO
 ALL CORRECTION TO TEMP.    ARE ZERO
          THERE IS ZERO HEAT FLUX EVERYWHERE

 MAXIMUM NON-PRESCRIBED INCREMENT IN TEMPERATURE IS    0.00    

 ITERATION SUMMARY FOR THE INCREMENT:   1 TOTAL ITERATIONS, OF WHICH
   0 ARE SEVERE DISCONTINUITY ITERATIONS AND  1 ARE EQUILIBRIUM ITERATIONS.

 TIME INCREMENT COMPLETED   10.0    ,  FRACTION OF STEP COMPLETED  0.200    
 STEP TIME COMPLETED        200.    ,  TOTAL TIME COMPLETED         200.    


  INCREMENT    21 STARTS. ATTEMPT NUMBER  1, TIME INCREMENT   10.0    
 
	UNSYMMETRIC NEW DIRECT SPARSE SOLVER RUNNING ON
 	1 HOST x 1 MPI RANK PER HOST x 8 THREADS PER RANK
        NUMBER OF EQUATIONS:  259128
        NUMBER OF RHS:        1
        NUMBER OF FLOPS:      5.492e+11
        SOLVER ELAPSED TIME:  3.0s

               CONVERGENCE CHECKS FOR EQUILIBRIUM ITERATION     1


 AVERAGE FORCE                       1.94       TIME AVG. FORCE        1.02    
 LARGEST SCALED RESIDUAL FORCE     -2.522E-03   AT NODE      13910   DOF  2
   INSTANCE: CHD4-M-1                                                                        
  CORRESPONDING RESIDUAL FORCE     -2.522E-03
 LARGEST INCREMENT OF DISP.         1.600E-05   AT NODE         15   DOF  2
   INSTANCE: CHD4-M-1                                                                        
 LARGEST CORRECTION TO DISP.        1.142E-08   AT NODE      29340   DOF  2
   INSTANCE: CHD4-M-1                                                                        
          THE FORCE     EQUILIBRIUM EQUATIONS HAVE CONVERGED

 AVERAGE HEAT FLUX                   0.00       TIME AVG. HEAT FLUX   1.000E-02
 ALL HEAT FLUX RESIDUALS ARE ZERO
 ALL TEMP.    INCREMENTS ARE ZERO
 ALL CORRECTION TO TEMP.    ARE ZERO
          THERE IS ZERO HEAT FLUX EVERYWHERE

 MAXIMUM NON-PRESCRIBED INCREMENT IN TEMPERATURE IS    0.00    

 ITERATION SUMMARY FOR THE INCREMENT:   1 TOTAL ITERATIONS, OF WHICH
   0 ARE SEVERE DISCONTINUITY ITERATIONS AND  1 ARE EQUILIBRIUM ITERATIONS.

 TIME INCREMENT COMPLETED   10.0    ,  FRACTION OF STEP COMPLETED  0.210    
 STEP TIME COMPLETED        210.    ,  TOTAL TIME COMPLETED         210.    


  INCREMENT    22 STARTS. ATTEMPT NUMBER  1, TIME INCREMENT   10.0    
 
	UNSYMMETRIC NEW DIRECT SPARSE SOLVER RUNNING ON
 	1 HOST x 1 MPI RANK PER HOST x 8 THREADS PER RANK
        NUMBER OF EQUATIONS:  259128
        NUMBER OF RHS:        1
        NUMBER OF FLOPS:      5.492e+11
        SOLVER ELAPSED TIME:  3.0s

               CONVERGENCE CHECKS FOR EQUILIBRIUM ITERATION     1


 AVERAGE FORCE                       2.04       TIME AVG. FORCE        1.07    
 LARGEST SCALED RESIDUAL FORCE      5.448E-03   AT NODE      18668   DOF  2
   INSTANCE: CHD4-M-1                                                                        
  CORRESPONDING RESIDUAL FORCE      5.448E-03
 LARGEST INCREMENT OF DISP.         1.600E-05   AT NODE         15   DOF  2
   INSTANCE: CHD4-M-1                                                                        
 LARGEST CORRECTION TO DISP.        1.490E-08   AT NODE      21568   DOF  2
   INSTANCE: CHD4-M-1                                                                        
          FORCE     EQUILIBRIUM NOT ACHIEVED WITHIN TOLERANCE.

 AVERAGE HEAT FLUX                   0.00       TIME AVG. HEAT FLUX   1.000E-02
 ALL HEAT FLUX RESIDUALS ARE ZERO
 ALL TEMP.    INCREMENTS ARE ZERO
 ALL CORRECTION TO TEMP.    ARE ZERO
          THERE IS ZERO HEAT FLUX EVERYWHERE
 
	UNSYMMETRIC NEW DIRECT SPARSE SOLVER RUNNING ON
 	1 HOST x 1 MPI RANK PER HOST x 8 THREADS PER RANK
        NUMBER OF EQUATIONS:  259128
        NUMBER OF RHS:        1
        NUMBER OF FLOPS:      5.492e+11
        SOLVER ELAPSED TIME:  3.0s

               CONVERGENCE CHECKS FOR EQUILIBRIUM ITERATION     2


 AVERAGE FORCE                       2.04       TIME AVG. FORCE        1.07    
 LARGEST SCALED RESIDUAL FORCE     -6.674E-06   AT NODE      16641   DOF  2
   INSTANCE: CHD4-M-1                                                                        
  CORRESPONDING RESIDUAL FORCE     -6.674E-06
 LARGEST INCREMENT OF DISP.         1.600E-05   AT NODE         15   DOF  2
   INSTANCE: CHD4-M-1                                                                        
 LARGEST CORRECTION TO DISP.       -2.678E-10   AT NODE      13875   DOF  2
   INSTANCE: CHD4-M-1                                                                        
          THE FORCE     EQUILIBRIUM EQUATIONS HAVE CONVERGED

 AVERAGE HEAT FLUX                   0.00       TIME AVG. HEAT FLUX   1.000E-02
 ALL HEAT FLUX RESIDUALS ARE ZERO
 ALL TEMP.    INCREMENTS ARE ZERO
 ALL CORRECTION TO TEMP.    ARE ZERO
          THERE IS ZERO HEAT FLUX EVERYWHERE

 MAXIMUM NON-PRESCRIBED INCREMENT IN TEMPERATURE IS    0.00    

 ITERATION SUMMARY FOR THE INCREMENT:   2 TOTAL ITERATIONS, OF WHICH
   0 ARE SEVERE DISCONTINUITY ITERATIONS AND  2 ARE EQUILIBRIUM ITERATIONS.

 TIME INCREMENT COMPLETED   10.0    ,  FRACTION OF STEP COMPLETED  0.220    
 STEP TIME COMPLETED        220.    ,  TOTAL TIME COMPLETED         220.    


  INCREMENT    23 STARTS. ATTEMPT NUMBER  1, TIME INCREMENT   10.0    
 
	UNSYMMETRIC NEW DIRECT SPARSE SOLVER RUNNING ON
 	1 HOST x 1 MPI RANK PER HOST x 8 THREADS PER RANK
        NUMBER OF EQUATIONS:  259128
        NUMBER OF RHS:        1
        NUMBER OF FLOPS:      5.492e+11
        SOLVER ELAPSED TIME:  3.1s

               CONVERGENCE CHECKS FOR EQUILIBRIUM ITERATION     1


 AVERAGE FORCE                       2.13       TIME AVG. FORCE        1.11    
 LARGEST SCALED RESIDUAL FORCE     -6.406E-03   AT NODE      25133   DOF  2
   INSTANCE: CHD4-M-1                                                                        
  CORRESPONDING RESIDUAL FORCE     -6.406E-03
 LARGEST INCREMENT OF DISP.         1.600E-05   AT NODE         15   DOF  2
   INSTANCE: CHD4-M-1                                                                        
 LARGEST CORRECTION TO DISP.        1.588E-08   AT NODE      20927   DOF  2
   INSTANCE: CHD4-M-1                                                                        
          FORCE     EQUILIBRIUM NOT ACHIEVED WITHIN TOLERANCE.

 AVERAGE HEAT FLUX                   0.00       TIME AVG. HEAT FLUX   1.000E-02
 ALL HEAT FLUX RESIDUALS ARE ZERO
 ALL TEMP.    INCREMENTS ARE ZERO
 ALL CORRECTION TO TEMP.    ARE ZERO
          THERE IS ZERO HEAT FLUX EVERYWHERE
 
	UNSYMMETRIC NEW DIRECT SPARSE SOLVER RUNNING ON
 	1 HOST x 1 MPI RANK PER HOST x 8 THREADS PER RANK
        NUMBER OF EQUATIONS:  259128
        NUMBER OF RHS:        1
        NUMBER OF FLOPS:      5.492e+11
        SOLVER ELAPSED TIME:  3.0s

               CONVERGENCE CHECKS FOR EQUILIBRIUM ITERATION     2


 AVERAGE FORCE                       2.13       TIME AVG. FORCE        1.11    
 LARGEST SCALED RESIDUAL FORCE     -1.300E-04   AT NODE      32810   DOF  2
   INSTANCE: CHD4-M-1                                                                        
  CORRESPONDING RESIDUAL FORCE     -1.300E-04
 LARGEST INCREMENT OF DISP.         1.600E-05   AT NODE         15   DOF  2
   INSTANCE: CHD4-M-1                                                                        
 LARGEST CORRECTION TO DISP.       -2.479E-10   AT NODE      17966   DOF  2
   INSTANCE: CHD4-M-1                                                                        
          THE FORCE     EQUILIBRIUM EQUATIONS HAVE CONVERGED

 AVERAGE HEAT FLUX                   0.00       TIME AVG. HEAT FLUX   1.000E-02
 ALL HEAT FLUX RESIDUALS ARE ZERO
 ALL TEMP.    INCREMENTS ARE ZERO
 ALL CORRECTION TO TEMP.    ARE ZERO
          THERE IS ZERO HEAT FLUX EVERYWHERE

 MAXIMUM NON-PRESCRIBED INCREMENT IN TEMPERATURE IS    0.00    

 ITERATION SUMMARY FOR THE INCREMENT:   2 TOTAL ITERATIONS, OF WHICH
   0 ARE SEVERE DISCONTINUITY ITERATIONS AND  2 ARE EQUILIBRIUM ITERATIONS.

 TIME INCREMENT COMPLETED   10.0    ,  FRACTION OF STEP COMPLETED  0.230    
 STEP TIME COMPLETED        230.    ,  TOTAL TIME COMPLETED         230.    


  INCREMENT    24 STARTS. ATTEMPT NUMBER  1, TIME INCREMENT   10.0    
 
	UNSYMMETRIC NEW DIRECT SPARSE SOLVER RUNNING ON
 	1 HOST x 1 MPI RANK PER HOST x 8 THREADS PER RANK
        NUMBER OF EQUATIONS:  259128
        NUMBER OF RHS:        1
        NUMBER OF FLOPS:      5.492e+11
        SOLVER ELAPSED TIME:  3.2s

               CONVERGENCE CHECKS FOR EQUILIBRIUM ITERATION     1


 AVERAGE FORCE                       2.22       TIME AVG. FORCE        1.16    
 LARGEST SCALED RESIDUAL FORCE      1.185E-02   AT NODE      32811   DOF  2
   INSTANCE: CHD4-M-1                                                                        
  CORRESPONDING RESIDUAL FORCE      1.185E-02
 LARGEST INCREMENT OF DISP.         1.600E-05   AT NODE         15   DOF  2
   INSTANCE: CHD4-M-1                                                                        
 LARGEST CORRECTION TO DISP.        1.751E-08   AT NODE      20907   DOF  2
   INSTANCE: CHD4-M-1                                                                        
          FORCE     EQUILIBRIUM NOT ACHIEVED WITHIN TOLERANCE.

 AVERAGE HEAT FLUX                   0.00       TIME AVG. HEAT FLUX   1.000E-02
 ALL HEAT FLUX RESIDUALS ARE ZERO
 ALL TEMP.    INCREMENTS ARE ZERO
 ALL CORRECTION TO TEMP.    ARE ZERO
          THERE IS ZERO HEAT FLUX EVERYWHERE
 
	UNSYMMETRIC NEW DIRECT SPARSE SOLVER RUNNING ON
 	1 HOST x 1 MPI RANK PER HOST x 8 THREADS PER RANK
        NUMBER OF EQUATIONS:  259128
        NUMBER OF RHS:        1
        NUMBER OF FLOPS:      5.492e+11
        SOLVER ELAPSED TIME:  3.1s

               CONVERGENCE CHECKS FOR EQUILIBRIUM ITERATION     2


 AVERAGE FORCE                       2.22       TIME AVG. FORCE        1.16    
 LARGEST SCALED RESIDUAL FORCE      2.605E-04   AT NODE      18706   DOF  2
   INSTANCE: CHD4-M-1                                                                        
  CORRESPONDING RESIDUAL FORCE      2.605E-04
 LARGEST INCREMENT OF DISP.         1.600E-05   AT NODE         15   DOF  2
   INSTANCE: CHD4-M-1                                                                        
 LARGEST CORRECTION TO DISP.        4.027E-10   AT NODE      32811   DOF  2
   INSTANCE: CHD4-M-1                                                                        
          THE FORCE     EQUILIBRIUM EQUATIONS HAVE CONVERGED

 AVERAGE HEAT FLUX                   0.00       TIME AVG. HEAT FLUX   1.000E-02
 ALL HEAT FLUX RESIDUALS ARE ZERO
 ALL TEMP.    INCREMENTS ARE ZERO
 ALL CORRECTION TO TEMP.    ARE ZERO
          THERE IS ZERO HEAT FLUX EVERYWHERE

 MAXIMUM NON-PRESCRIBED INCREMENT IN TEMPERATURE IS    0.00    

 ITERATION SUMMARY FOR THE INCREMENT:   2 TOTAL ITERATIONS, OF WHICH
   0 ARE SEVERE DISCONTINUITY ITERATIONS AND  2 ARE EQUILIBRIUM ITERATIONS.

 TIME INCREMENT COMPLETED   10.0    ,  FRACTION OF STEP COMPLETED  0.240    
 STEP TIME COMPLETED        240.    ,  TOTAL TIME COMPLETED         240.    


  INCREMENT    25 STARTS. ATTEMPT NUMBER  1, TIME INCREMENT   10.0    
 
	UNSYMMETRIC NEW DIRECT SPARSE SOLVER RUNNING ON
 	1 HOST x 1 MPI RANK PER HOST x 8 THREADS PER RANK
        NUMBER OF EQUATIONS:  259128
        NUMBER OF RHS:        1
        NUMBER OF FLOPS:      5.492e+11
        SOLVER ELAPSED TIME:  3.1s

               CONVERGENCE CHECKS FOR EQUILIBRIUM ITERATION     1


 AVERAGE FORCE                       2.31       TIME AVG. FORCE        1.20    
 LARGEST SCALED RESIDUAL FORCE      1.606E-02   AT NODE      11700   DOF  2
   INSTANCE: CHD4-M-1                                                                        
  CORRESPONDING RESIDUAL FORCE      1.606E-02
 LARGEST INCREMENT OF DISP.         1.600E-05   AT NODE         15   DOF  2
   INSTANCE: CHD4-M-1                                                                        
 LARGEST CORRECTION TO DISP.        1.985E-08   AT NODE      29337   DOF  2
   INSTANCE: CHD4-M-1                                                                        
          FORCE     EQUILIBRIUM NOT ACHIEVED WITHIN TOLERANCE.

 AVERAGE HEAT FLUX                   0.00       TIME AVG. HEAT FLUX   1.000E-02
 ALL HEAT FLUX RESIDUALS ARE ZERO
 ALL TEMP.    INCREMENTS ARE ZERO
 ALL CORRECTION TO TEMP.    ARE ZERO
          THERE IS ZERO HEAT FLUX EVERYWHERE
 
	UNSYMMETRIC NEW DIRECT SPARSE SOLVER RUNNING ON
 	1 HOST x 1 MPI RANK PER HOST x 8 THREADS PER RANK
        NUMBER OF EQUATIONS:  259128
        NUMBER OF RHS:        1
        NUMBER OF FLOPS:      5.492e+11
        SOLVER ELAPSED TIME:  3.1s

               CONVERGENCE CHECKS FOR EQUILIBRIUM ITERATION     2


 AVERAGE FORCE                       2.31       TIME AVG. FORCE        1.20    
 LARGEST SCALED RESIDUAL FORCE      1.247E-05   AT NODE      18357   DOF  2
   INSTANCE: CHD4-M-1                                                                        
  CORRESPONDING RESIDUAL FORCE      1.247E-05
 LARGEST INCREMENT OF DISP.         1.600E-05   AT NODE         15   DOF  2
   INSTANCE: CHD4-M-1                                                                        
 LARGEST CORRECTION TO DISP.       -5.604E-10   AT NODE      11661   DOF  2
   INSTANCE: CHD4-M-1                                                                        
          THE FORCE     EQUILIBRIUM EQUATIONS HAVE CONVERGED

 AVERAGE HEAT FLUX                   0.00       TIME AVG. HEAT FLUX   1.000E-02
 ALL HEAT FLUX RESIDUALS ARE ZERO
 ALL TEMP.    INCREMENTS ARE ZERO
 ALL CORRECTION TO TEMP.    ARE ZERO
          THERE IS ZERO HEAT FLUX EVERYWHERE

 MAXIMUM NON-PRESCRIBED INCREMENT IN TEMPERATURE IS    0.00    

 ITERATION SUMMARY FOR THE INCREMENT:   2 TOTAL ITERATIONS, OF WHICH
   0 ARE SEVERE DISCONTINUITY ITERATIONS AND  2 ARE EQUILIBRIUM ITERATIONS.

 TIME INCREMENT COMPLETED   10.0    ,  FRACTION OF STEP COMPLETED  0.250    
 STEP TIME COMPLETED        250.    ,  TOTAL TIME COMPLETED         250.    


  INCREMENT    26 STARTS. ATTEMPT NUMBER  1, TIME INCREMENT   10.0    
 
	UNSYMMETRIC NEW DIRECT SPARSE SOLVER RUNNING ON
 	1 HOST x 1 MPI RANK PER HOST x 8 THREADS PER RANK
        NUMBER OF EQUATIONS:  259128
        NUMBER OF RHS:        1
        NUMBER OF FLOPS:      5.492e+11
        SOLVER ELAPSED TIME:  3.1s

               CONVERGENCE CHECKS FOR EQUILIBRIUM ITERATION     1


 AVERAGE FORCE                       2.41       TIME AVG. FORCE        1.25    
 LARGEST SCALED RESIDUAL FORCE     -1.465E-02   AT NODE      18705   DOF  2
   INSTANCE: CHD4-M-1                                                                        
  CORRESPONDING RESIDUAL FORCE     -1.465E-02
 LARGEST INCREMENT OF DISP.         1.600E-05   AT NODE         15   DOF  2
   INSTANCE: CHD4-M-1                                                                        
 LARGEST CORRECTION TO DISP.        1.856E-08   AT NODE      25406   DOF  2
   INSTANCE: CHD4-M-1                                                                        
          FORCE     EQUILIBRIUM NOT ACHIEVED WITHIN TOLERANCE.

 AVERAGE HEAT FLUX                   0.00       TIME AVG. HEAT FLUX   1.000E-02
 ALL HEAT FLUX RESIDUALS ARE ZERO
 ALL TEMP.    INCREMENTS ARE ZERO
 ALL CORRECTION TO TEMP.    ARE ZERO
          THERE IS ZERO HEAT FLUX EVERYWHERE
 
	UNSYMMETRIC NEW DIRECT SPARSE SOLVER RUNNING ON
 	1 HOST x 1 MPI RANK PER HOST x 8 THREADS PER RANK
        NUMBER OF EQUATIONS:  259128
        NUMBER OF RHS:        1
        NUMBER OF FLOPS:      5.492e+11
        SOLVER ELAPSED TIME:  3.0s

               CONVERGENCE CHECKS FOR EQUILIBRIUM ITERATION     2


 AVERAGE FORCE                       2.41       TIME AVG. FORCE        1.25    
 LARGEST SCALED RESIDUAL FORCE     -1.440E-05   AT NODE      25835   DOF  2
   INSTANCE: CHD4-M-1                                                                        
  CORRESPONDING RESIDUAL FORCE     -1.440E-05
 LARGEST INCREMENT OF DISP.         1.600E-05   AT NODE         15   DOF  2
   INSTANCE: CHD4-M-1                                                                        
 LARGEST CORRECTION TO DISP.       -5.889E-10   AT NODE      11662   DOF  2
   INSTANCE: CHD4-M-1                                                                        
          THE FORCE     EQUILIBRIUM EQUATIONS HAVE CONVERGED

 AVERAGE HEAT FLUX                   0.00       TIME AVG. HEAT FLUX   1.000E-02
 ALL HEAT FLUX RESIDUALS ARE ZERO
 ALL TEMP.    INCREMENTS ARE ZERO
 ALL CORRECTION TO TEMP.    ARE ZERO
          THERE IS ZERO HEAT FLUX EVERYWHERE

 MAXIMUM NON-PRESCRIBED INCREMENT IN TEMPERATURE IS    0.00    

 ITERATION SUMMARY FOR THE INCREMENT:   2 TOTAL ITERATIONS, OF WHICH
   0 ARE SEVERE DISCONTINUITY ITERATIONS AND  2 ARE EQUILIBRIUM ITERATIONS.

 TIME INCREMENT COMPLETED   10.0    ,  FRACTION OF STEP COMPLETED  0.260    
 STEP TIME COMPLETED        260.    ,  TOTAL TIME COMPLETED         260.    


  INCREMENT    27 STARTS. ATTEMPT NUMBER  1, TIME INCREMENT   10.0    
 
	UNSYMMETRIC NEW DIRECT SPARSE SOLVER RUNNING ON
 	1 HOST x 1 MPI RANK PER HOST x 8 THREADS PER RANK
        NUMBER OF EQUATIONS:  259128
        NUMBER OF RHS:        1
        NUMBER OF FLOPS:      5.492e+11
        SOLVER ELAPSED TIME:  3.0s

               CONVERGENCE CHECKS FOR EQUILIBRIUM ITERATION     1


 AVERAGE FORCE                       2.50       TIME AVG. FORCE        1.30    
 LARGEST SCALED RESIDUAL FORCE     -1.871E-02   AT NODE      32071   DOF  2
   INSTANCE: CHD4-M-1                                                                        
  CORRESPONDING RESIDUAL FORCE     -1.871E-02
 LARGEST INCREMENT OF DISP.         1.600E-05   AT NODE         15   DOF  2
   INSTANCE: CHD4-M-1                                                                        
 LARGEST CORRECTION TO DISP.        1.967E-08   AT NODE      29300   DOF  2
   INSTANCE: CHD4-M-1                                                                        
          FORCE     EQUILIBRIUM NOT ACHIEVED WITHIN TOLERANCE.

 AVERAGE HEAT FLUX                   0.00       TIME AVG. HEAT FLUX   1.000E-02
 ALL HEAT FLUX RESIDUALS ARE ZERO
 ALL TEMP.    INCREMENTS ARE ZERO
 ALL CORRECTION TO TEMP.    ARE ZERO
          THERE IS ZERO HEAT FLUX EVERYWHERE
 
	UNSYMMETRIC NEW DIRECT SPARSE SOLVER RUNNING ON
 	1 HOST x 1 MPI RANK PER HOST x 8 THREADS PER RANK
        NUMBER OF EQUATIONS:  259128
        NUMBER OF RHS:        1
        NUMBER OF FLOPS:      5.492e+11
        SOLVER ELAPSED TIME:  3.2s

               CONVERGENCE CHECKS FOR EQUILIBRIUM ITERATION     2


 AVERAGE FORCE                       2.50       TIME AVG. FORCE        1.30    
 LARGEST SCALED RESIDUAL FORCE      4.480E-04   AT NODE      18705   DOF  2
   INSTANCE: CHD4-M-1                                                                        
  CORRESPONDING RESIDUAL FORCE      4.480E-04
 LARGEST INCREMENT OF DISP.         1.600E-05   AT NODE         15   DOF  2
   INSTANCE: CHD4-M-1                                                                        
 LARGEST CORRECTION TO DISP.        6.076E-10   AT NODE      32110   DOF  2
   INSTANCE: CHD4-M-1                                                                        
          THE FORCE     EQUILIBRIUM EQUATIONS HAVE CONVERGED

 AVERAGE HEAT FLUX                   0.00       TIME AVG. HEAT FLUX   1.000E-02
 ALL HEAT FLUX RESIDUALS ARE ZERO
 ALL TEMP.    INCREMENTS ARE ZERO
 ALL CORRECTION TO TEMP.    ARE ZERO
          THERE IS ZERO HEAT FLUX EVERYWHERE

 MAXIMUM NON-PRESCRIBED INCREMENT IN TEMPERATURE IS    0.00    

 ITERATION SUMMARY FOR THE INCREMENT:   2 TOTAL ITERATIONS, OF WHICH
   0 ARE SEVERE DISCONTINUITY ITERATIONS AND  2 ARE EQUILIBRIUM ITERATIONS.

 TIME INCREMENT COMPLETED   10.0    ,  FRACTION OF STEP COMPLETED  0.270    
 STEP TIME COMPLETED        270.    ,  TOTAL TIME COMPLETED         270.    


  INCREMENT    28 STARTS. ATTEMPT NUMBER  1, TIME INCREMENT   10.0    
 
	UNSYMMETRIC NEW DIRECT SPARSE SOLVER RUNNING ON
 	1 HOST x 1 MPI RANK PER HOST x 8 THREADS PER RANK
        NUMBER OF EQUATIONS:  259128
        NUMBER OF RHS:        1
        NUMBER OF FLOPS:      5.492e+11
        SOLVER ELAPSED TIME:  3.2s

               CONVERGENCE CHECKS FOR EQUILIBRIUM ITERATION     1


 AVERAGE FORCE                       2.59       TIME AVG. FORCE        1.34    
 LARGEST SCALED RESIDUAL FORCE     -1.168E-02   AT NODE      32072   DOF  2
   INSTANCE: CHD4-M-1                                                                        
  CORRESPONDING RESIDUAL FORCE     -1.168E-02
 LARGEST INCREMENT OF DISP.         1.600E-05   AT NODE         15   DOF  2
   INSTANCE: CHD4-M-1                                                                        
 LARGEST CORRECTION TO DISP.        1.977E-08   AT NODE      32382   DOF  2
   INSTANCE: CHD4-M-1                                                                        
          FORCE     EQUILIBRIUM NOT ACHIEVED WITHIN TOLERANCE.

 AVERAGE HEAT FLUX                   0.00       TIME AVG. HEAT FLUX   1.000E-02
 ALL HEAT FLUX RESIDUALS ARE ZERO
 ALL TEMP.    INCREMENTS ARE ZERO
 ALL CORRECTION TO TEMP.    ARE ZERO
          THERE IS ZERO HEAT FLUX EVERYWHERE
 
	UNSYMMETRIC NEW DIRECT SPARSE SOLVER RUNNING ON
 	1 HOST x 1 MPI RANK PER HOST x 8 THREADS PER RANK
        NUMBER OF EQUATIONS:  259128
        NUMBER OF RHS:        1
        NUMBER OF FLOPS:      5.492e+11
        SOLVER ELAPSED TIME:  3.3s

               CONVERGENCE CHECKS FOR EQUILIBRIUM ITERATION     2


 AVERAGE FORCE                       2.59       TIME AVG. FORCE        1.34    
 LARGEST SCALED RESIDUAL FORCE      3.678E-05   AT NODE      12247   DOF  2
   INSTANCE: CHD4-M-1                                                                        
  CORRESPONDING RESIDUAL FORCE      3.678E-05
 LARGEST INCREMENT OF DISP.         1.600E-05   AT NODE         15   DOF  2
   INSTANCE: CHD4-M-1                                                                        
 LARGEST CORRECTION TO DISP.       -4.560E-10   AT NODE      18002   DOF  2
   INSTANCE: CHD4-M-1                                                                        
          THE FORCE     EQUILIBRIUM EQUATIONS HAVE CONVERGED

 AVERAGE HEAT FLUX                   0.00       TIME AVG. HEAT FLUX   1.000E-02
 ALL HEAT FLUX RESIDUALS ARE ZERO
 ALL TEMP.    INCREMENTS ARE ZERO
 ALL CORRECTION TO TEMP.    ARE ZERO
          THERE IS ZERO HEAT FLUX EVERYWHERE

 MAXIMUM NON-PRESCRIBED INCREMENT IN TEMPERATURE IS    0.00    

 ITERATION SUMMARY FOR THE INCREMENT:   2 TOTAL ITERATIONS, OF WHICH
   0 ARE SEVERE DISCONTINUITY ITERATIONS AND  2 ARE EQUILIBRIUM ITERATIONS.

 TIME INCREMENT COMPLETED   10.0    ,  FRACTION OF STEP COMPLETED  0.280    
 STEP TIME COMPLETED        280.    ,  TOTAL TIME COMPLETED         280.    


  INCREMENT    29 STARTS. ATTEMPT NUMBER  1, TIME INCREMENT   10.0    
 
	UNSYMMETRIC NEW DIRECT SPARSE SOLVER RUNNING ON
 	1 HOST x 1 MPI RANK PER HOST x 8 THREADS PER RANK
        NUMBER OF EQUATIONS:  259128
        NUMBER OF RHS:        1
        NUMBER OF FLOPS:      5.492e+11
        SOLVER ELAPSED TIME:  3.3s

               CONVERGENCE CHECKS FOR EQUILIBRIUM ITERATION     1


 AVERAGE FORCE                       2.68       TIME AVG. FORCE        1.39    
 LARGEST SCALED RESIDUAL FORCE      7.049E-03   AT NODE      12365   DOF  2
   INSTANCE: CHD4-M-1                                                                        
  CORRESPONDING RESIDUAL FORCE      7.049E-03
 LARGEST INCREMENT OF DISP.         1.600E-05   AT NODE         15   DOF  2
   INSTANCE: CHD4-M-1                                                                        
 LARGEST CORRECTION TO DISP.        2.081E-08   AT NODE      32344   DOF  2
   INSTANCE: CHD4-M-1                                                                        
          FORCE     EQUILIBRIUM NOT ACHIEVED WITHIN TOLERANCE.

 AVERAGE HEAT FLUX                   0.00       TIME AVG. HEAT FLUX   1.000E-02
 ALL HEAT FLUX RESIDUALS ARE ZERO
 ALL TEMP.    INCREMENTS ARE ZERO
 ALL CORRECTION TO TEMP.    ARE ZERO
          THERE IS ZERO HEAT FLUX EVERYWHERE
 
	UNSYMMETRIC NEW DIRECT SPARSE SOLVER RUNNING ON
 	1 HOST x 1 MPI RANK PER HOST x 8 THREADS PER RANK
        NUMBER OF EQUATIONS:  259128
        NUMBER OF RHS:        1
        NUMBER OF FLOPS:      5.492e+11
        SOLVER ELAPSED TIME:  3.2s

               CONVERGENCE CHECKS FOR EQUILIBRIUM ITERATION     2


 AVERAGE FORCE                       2.68       TIME AVG. FORCE        1.39    
 LARGEST SCALED RESIDUAL FORCE     -3.718E-04   AT NODE      25169   DOF  2
   INSTANCE: CHD4-M-1                                                                        
  CORRESPONDING RESIDUAL FORCE     -3.718E-04
 LARGEST INCREMENT OF DISP.         1.600E-05   AT NODE         15   DOF  2
   INSTANCE: CHD4-M-1                                                                        
 LARGEST CORRECTION TO DISP.        3.477E-10   AT NODE      32852   DOF  2
   INSTANCE: CHD4-M-1                                                                        
          THE FORCE     EQUILIBRIUM EQUATIONS HAVE CONVERGED

 AVERAGE HEAT FLUX                   0.00       TIME AVG. HEAT FLUX   1.000E-02
 ALL HEAT FLUX RESIDUALS ARE ZERO
 ALL TEMP.    INCREMENTS ARE ZERO
 ALL CORRECTION TO TEMP.    ARE ZERO
          THERE IS ZERO HEAT FLUX EVERYWHERE

 MAXIMUM NON-PRESCRIBED INCREMENT IN TEMPERATURE IS    0.00    

 ITERATION SUMMARY FOR THE INCREMENT:   2 TOTAL ITERATIONS, OF WHICH
   0 ARE SEVERE DISCONTINUITY ITERATIONS AND  2 ARE EQUILIBRIUM ITERATIONS.

 TIME INCREMENT COMPLETED   10.0    ,  FRACTION OF STEP COMPLETED  0.290    
 STEP TIME COMPLETED        290.    ,  TOTAL TIME COMPLETED         290.    


  INCREMENT    30 STARTS. ATTEMPT NUMBER  1, TIME INCREMENT   10.0    
 
	UNSYMMETRIC NEW DIRECT SPARSE SOLVER RUNNING ON
 	1 HOST x 1 MPI RANK PER HOST x 8 THREADS PER RANK
        NUMBER OF EQUATIONS:  259128
        NUMBER OF RHS:        1
        NUMBER OF FLOPS:      5.492e+11
        SOLVER ELAPSED TIME:  3.0s

               CONVERGENCE CHECKS FOR EQUILIBRIUM ITERATION     1


 AVERAGE FORCE                       2.77       TIME AVG. FORCE        1.43    
 LARGEST SCALED RESIDUAL FORCE     -1.388E-02   AT NODE      11586   DOF  2
   INSTANCE: CHD4-M-1                                                                        
  CORRESPONDING RESIDUAL FORCE     -1.388E-02
 LARGEST INCREMENT OF DISP.         1.600E-05   AT NODE         15   DOF  2
   INSTANCE: CHD4-M-1                                                                        
 LARGEST CORRECTION TO DISP.        2.261E-08   AT NODE      32383   DOF  2
   INSTANCE: CHD4-M-1                                                                        
          FORCE     EQUILIBRIUM NOT ACHIEVED WITHIN TOLERANCE.

 AVERAGE HEAT FLUX                   0.00       TIME AVG. HEAT FLUX   1.000E-02
 ALL HEAT FLUX RESIDUALS ARE ZERO
 ALL TEMP.    INCREMENTS ARE ZERO
 ALL CORRECTION TO TEMP.    ARE ZERO
          THERE IS ZERO HEAT FLUX EVERYWHERE
 
	UNSYMMETRIC NEW DIRECT SPARSE SOLVER RUNNING ON
 	1 HOST x 1 MPI RANK PER HOST x 8 THREADS PER RANK
        NUMBER OF EQUATIONS:  259128
        NUMBER OF RHS:        1
        NUMBER OF FLOPS:      5.492e+11
        SOLVER ELAPSED TIME:  3.1s

               CONVERGENCE CHECKS FOR EQUILIBRIUM ITERATION     2


 AVERAGE FORCE                       2.77       TIME AVG. FORCE        1.43    
 LARGEST SCALED RESIDUAL FORCE     -1.301E-06   AT NODE      11625   DOF  1
   INSTANCE: CHD4-M-1                                                                        
  CORRESPONDING RESIDUAL FORCE     -1.301E-06
 LARGEST INCREMENT OF DISP.         1.600E-05   AT NODE         15   DOF  2
   INSTANCE: CHD4-M-1                                                                        
 LARGEST CORRECTION TO DISP.        4.144E-10   AT NODE      25207   DOF  2
   INSTANCE: CHD4-M-1                                                                        
          THE FORCE     EQUILIBRIUM EQUATIONS HAVE CONVERGED

 AVERAGE HEAT FLUX                   0.00       TIME AVG. HEAT FLUX   1.000E-02
 ALL HEAT FLUX RESIDUALS ARE ZERO
 ALL TEMP.    INCREMENTS ARE ZERO
 ALL CORRECTION TO TEMP.    ARE ZERO
          THERE IS ZERO HEAT FLUX EVERYWHERE

 MAXIMUM NON-PRESCRIBED INCREMENT IN TEMPERATURE IS    0.00    

 ITERATION SUMMARY FOR THE INCREMENT:   2 TOTAL ITERATIONS, OF WHICH
   0 ARE SEVERE DISCONTINUITY ITERATIONS AND  2 ARE EQUILIBRIUM ITERATIONS.

 TIME INCREMENT COMPLETED   10.0    ,  FRACTION OF STEP COMPLETED  0.300    
 STEP TIME COMPLETED        300.    ,  TOTAL TIME COMPLETED         300.    


  INCREMENT    31 STARTS. ATTEMPT NUMBER  1, TIME INCREMENT   10.0    
 
	UNSYMMETRIC NEW DIRECT SPARSE SOLVER RUNNING ON
 	1 HOST x 1 MPI RANK PER HOST x 8 THREADS PER RANK
        NUMBER OF EQUATIONS:  259128
        NUMBER OF RHS:        1
        NUMBER OF FLOPS:      5.492e+11
        SOLVER ELAPSED TIME:  3.0s

               CONVERGENCE CHECKS FOR EQUILIBRIUM ITERATION     1


 AVERAGE FORCE                       2.86       TIME AVG. FORCE        1.48    
 LARGEST SCALED RESIDUAL FORCE      5.892E-03   AT NODE      34179   DOF  3
   INSTANCE: CHD4-M-1                                                                        
  CORRESPONDING RESIDUAL FORCE      5.892E-03
 LARGEST INCREMENT OF DISP.         1.600E-05   AT NODE         15   DOF  2
   INSTANCE: CHD4-M-1                                                                        
 LARGEST CORRECTION TO DISP.        2.402E-08   AT NODE      25364   DOF  2
   INSTANCE: CHD4-M-1                                                                        
          THE FORCE     EQUILIBRIUM EQUATIONS HAVE CONVERGED

 AVERAGE HEAT FLUX                   0.00       TIME AVG. HEAT FLUX   1.000E-02
 ALL HEAT FLUX RESIDUALS ARE ZERO
 ALL TEMP.    INCREMENTS ARE ZERO
 ALL CORRECTION TO TEMP.    ARE ZERO
          THERE IS ZERO HEAT FLUX EVERYWHERE

 MAXIMUM NON-PRESCRIBED INCREMENT IN TEMPERATURE IS    0.00    

 ITERATION SUMMARY FOR THE INCREMENT:   1 TOTAL ITERATIONS, OF WHICH
   0 ARE SEVERE DISCONTINUITY ITERATIONS AND  1 ARE EQUILIBRIUM ITERATIONS.

 TIME INCREMENT COMPLETED   10.0    ,  FRACTION OF STEP COMPLETED  0.310    
 STEP TIME COMPLETED        310.    ,  TOTAL TIME COMPLETED         310.    


  INCREMENT    32 STARTS. ATTEMPT NUMBER  1, TIME INCREMENT   10.0    
 
	UNSYMMETRIC NEW DIRECT SPARSE SOLVER RUNNING ON
 	1 HOST x 1 MPI RANK PER HOST x 8 THREADS PER RANK
        NUMBER OF EQUATIONS:  259128
        NUMBER OF RHS:        1
        NUMBER OF FLOPS:      5.492e+11
        SOLVER ELAPSED TIME:  3.0s

               CONVERGENCE CHECKS FOR EQUILIBRIUM ITERATION     1


 AVERAGE FORCE                       2.95       TIME AVG. FORCE        1.53    
 LARGEST SCALED RESIDUAL FORCE     -9.890E-03   AT NODE      18702   DOF  2
   INSTANCE: CHD4-M-1                                                                        
  CORRESPONDING RESIDUAL FORCE     -9.890E-03
 LARGEST INCREMENT OF DISP.         1.600E-05   AT NODE         15   DOF  2
   INSTANCE: CHD4-M-1                                                                        
 LARGEST CORRECTION TO DISP.        2.508E-08   AT NODE      25403   DOF  2
   INSTANCE: CHD4-M-1                                                                        
          FORCE     EQUILIBRIUM NOT ACHIEVED WITHIN TOLERANCE.

 AVERAGE HEAT FLUX                   0.00       TIME AVG. HEAT FLUX   1.000E-02
 ALL HEAT FLUX RESIDUALS ARE ZERO
 ALL TEMP.    INCREMENTS ARE ZERO
 ALL CORRECTION TO TEMP.    ARE ZERO
          THERE IS ZERO HEAT FLUX EVERYWHERE
 
	UNSYMMETRIC NEW DIRECT SPARSE SOLVER RUNNING ON
 	1 HOST x 1 MPI RANK PER HOST x 8 THREADS PER RANK
        NUMBER OF EQUATIONS:  259128
        NUMBER OF RHS:        1
        NUMBER OF FLOPS:      5.492e+11
        SOLVER ELAPSED TIME:  3.0s

               CONVERGENCE CHECKS FOR EQUILIBRIUM ITERATION     2


 AVERAGE FORCE                       2.95       TIME AVG. FORCE        1.53    
 LARGEST SCALED RESIDUAL FORCE      6.453E-05   AT NODE      12406   DOF  2
   INSTANCE: CHD4-M-1                                                                        
  CORRESPONDING RESIDUAL FORCE      6.453E-05
 LARGEST INCREMENT OF DISP.         1.600E-05   AT NODE         15   DOF  2
   INSTANCE: CHD4-M-1                                                                        
 LARGEST CORRECTION TO DISP.        7.919E-10   AT NODE      25128   DOF  2
   INSTANCE: CHD4-M-1                                                                        
          THE FORCE     EQUILIBRIUM EQUATIONS HAVE CONVERGED

 AVERAGE HEAT FLUX                   0.00       TIME AVG. HEAT FLUX   1.000E-02
 ALL HEAT FLUX RESIDUALS ARE ZERO
 ALL TEMP.    INCREMENTS ARE ZERO
 ALL CORRECTION TO TEMP.    ARE ZERO
          THERE IS ZERO HEAT FLUX EVERYWHERE

 MAXIMUM NON-PRESCRIBED INCREMENT IN TEMPERATURE IS    0.00    

 ITERATION SUMMARY FOR THE INCREMENT:   2 TOTAL ITERATIONS, OF WHICH
   0 ARE SEVERE DISCONTINUITY ITERATIONS AND  2 ARE EQUILIBRIUM ITERATIONS.

 TIME INCREMENT COMPLETED   10.0    ,  FRACTION OF STEP COMPLETED  0.320    
 STEP TIME COMPLETED        320.    ,  TOTAL TIME COMPLETED         320.    


  INCREMENT    33 STARTS. ATTEMPT NUMBER  1, TIME INCREMENT   10.0    
 
	UNSYMMETRIC NEW DIRECT SPARSE SOLVER RUNNING ON
 	1 HOST x 1 MPI RANK PER HOST x 8 THREADS PER RANK
        NUMBER OF EQUATIONS:  259128
        NUMBER OF RHS:        1
        NUMBER OF FLOPS:      5.492e+11
        SOLVER ELAPSED TIME:  3.0s

               CONVERGENCE CHECKS FOR EQUILIBRIUM ITERATION     1


 AVERAGE FORCE                       3.04       TIME AVG. FORCE        1.57    
 LARGEST SCALED RESIDUAL FORCE      1.606E-02   AT NODE      32192   DOF  2
   INSTANCE: CHD4-M-1                                                                        
  CORRESPONDING RESIDUAL FORCE      1.606E-02
 LARGEST INCREMENT OF DISP.         1.600E-05   AT NODE         15   DOF  2
   INSTANCE: CHD4-M-1                                                                        
 LARGEST CORRECTION TO DISP.        2.680E-08   AT NODE      25402   DOF  2
   INSTANCE: CHD4-M-1                                                                        
          FORCE     EQUILIBRIUM NOT ACHIEVED WITHIN TOLERANCE.

 AVERAGE HEAT FLUX                   0.00       TIME AVG. HEAT FLUX   1.000E-02
 ALL HEAT FLUX RESIDUALS ARE ZERO
 ALL TEMP.    INCREMENTS ARE ZERO
 ALL CORRECTION TO TEMP.    ARE ZERO
          THERE IS ZERO HEAT FLUX EVERYWHERE
 
	UNSYMMETRIC NEW DIRECT SPARSE SOLVER RUNNING ON
 	1 HOST x 1 MPI RANK PER HOST x 8 THREADS PER RANK
        NUMBER OF EQUATIONS:  259128
        NUMBER OF RHS:        1
        NUMBER OF FLOPS:      5.492e+11
        SOLVER ELAPSED TIME:  3.1s

               CONVERGENCE CHECKS FOR EQUILIBRIUM ITERATION     2


 AVERAGE FORCE                       3.04       TIME AVG. FORCE        1.57    
 LARGEST SCALED RESIDUAL FORCE     -1.806E-04   AT NODE      20105   DOF  2
   INSTANCE: CHD4-M-1                                                                        
  CORRESPONDING RESIDUAL FORCE     -1.806E-04
 LARGEST INCREMENT OF DISP.         1.600E-05   AT NODE         15   DOF  2
   INSTANCE: CHD4-M-1                                                                        
 LARGEST CORRECTION TO DISP.       -6.174E-10   AT NODE      15141   DOF  3
   INSTANCE: CHD4-M-1                                                                        
          THE FORCE     EQUILIBRIUM EQUATIONS HAVE CONVERGED

 AVERAGE HEAT FLUX                   0.00       TIME AVG. HEAT FLUX   1.000E-02
 ALL HEAT FLUX RESIDUALS ARE ZERO
 ALL TEMP.    INCREMENTS ARE ZERO
 ALL CORRECTION TO TEMP.    ARE ZERO
          THERE IS ZERO HEAT FLUX EVERYWHERE

 MAXIMUM NON-PRESCRIBED INCREMENT IN TEMPERATURE IS    0.00    

 ITERATION SUMMARY FOR THE INCREMENT:   2 TOTAL ITERATIONS, OF WHICH
   0 ARE SEVERE DISCONTINUITY ITERATIONS AND  2 ARE EQUILIBRIUM ITERATIONS.

 TIME INCREMENT COMPLETED   10.0    ,  FRACTION OF STEP COMPLETED  0.330    
 STEP TIME COMPLETED        330.    ,  TOTAL TIME COMPLETED         330.    


  INCREMENT    34 STARTS. ATTEMPT NUMBER  1, TIME INCREMENT   10.0    
 
	UNSYMMETRIC NEW DIRECT SPARSE SOLVER RUNNING ON
 	1 HOST x 1 MPI RANK PER HOST x 8 THREADS PER RANK
        NUMBER OF EQUATIONS:  259128
        NUMBER OF RHS:        1
        NUMBER OF FLOPS:      5.492e+11
        SOLVER ELAPSED TIME:  3.0s

               CONVERGENCE CHECKS FOR EQUILIBRIUM ITERATION     1


 AVERAGE FORCE                       3.13       TIME AVG. FORCE        1.62    
 LARGEST SCALED RESIDUAL FORCE      6.343E-03   AT NODE      11432   DOF  2
   INSTANCE: CHD4-M-1                                                                        
  CORRESPONDING RESIDUAL FORCE      6.343E-03
[...]
 LARGEST SCALED RESIDUAL FORCE     -3.258E-02   AT NODE      25944   DOF  2
   INSTANCE: CHD4-M-1                                                                        
  CORRESPONDING RESIDUAL FORCE     -3.258E-02
 LARGEST INCREMENT OF DISP.         1.967E-05   AT NODE      63614   DOF  2
   INSTANCE: CHD4-M-1                                                                        
 LARGEST CORRECTION TO DISP.        1.652E-07   AT NODE       8734   DOF  2
   INSTANCE: CHD4-M-1                                                                        
          FORCE     EQUILIBRIUM NOT ACHIEVED WITHIN TOLERANCE.

 AVERAGE HEAT FLUX                   0.00       TIME AVG. HEAT FLUX   1.000E-02
 ALL HEAT FLUX RESIDUALS ARE ZERO
 ALL TEMP.    INCREMENTS ARE ZERO
 ALL CORRECTION TO TEMP.    ARE ZERO
          THERE IS ZERO HEAT FLUX EVERYWHERE
 
	UNSYMMETRIC NEW DIRECT SPARSE SOLVER RUNNING ON
 	1 HOST x 1 MPI RANK PER HOST x 8 THREADS PER RANK
        NUMBER OF EQUATIONS:  259128
        NUMBER OF RHS:        1
        NUMBER OF FLOPS:      5.492e+11
        SOLVER ELAPSED TIME:  3.2s

               CONVERGENCE CHECKS FOR EQUILIBRIUM ITERATION     3


 AVERAGE FORCE                       3.91       TIME AVG. FORCE        3.30    
 LARGEST SCALED RESIDUAL FORCE     -6.050E-03   AT NODE      11512   DOF  2
   INSTANCE: CHD4-M-1                                                                        
  CORRESPONDING RESIDUAL FORCE     -6.050E-03
 LARGEST INCREMENT OF DISP.         1.967E-05   AT NODE      63614   DOF  2
   INSTANCE: CHD4-M-1                                                                        
 LARGEST CORRECTION TO DISP.       -2.506E-08   AT NODE      14191   DOF  2
   INSTANCE: CHD4-M-1                                                                        
          THE FORCE     EQUILIBRIUM EQUATIONS HAVE CONVERGED

 AVERAGE HEAT FLUX                   0.00       TIME AVG. HEAT FLUX   1.000E-02
 ALL HEAT FLUX RESIDUALS ARE ZERO
 ALL TEMP.    INCREMENTS ARE ZERO
 ALL CORRECTION TO TEMP.    ARE ZERO
          THERE IS ZERO HEAT FLUX EVERYWHERE

 MAXIMUM NON-PRESCRIBED INCREMENT IN TEMPERATURE IS    0.00    

 ITERATION SUMMARY FOR THE INCREMENT:   3 TOTAL ITERATIONS, OF WHICH
   0 ARE SEVERE DISCONTINUITY ITERATIONS AND  3 ARE EQUILIBRIUM ITERATIONS.

 TIME INCREMENT COMPLETED   10.0    ,  FRACTION OF STEP COMPLETED  0.970    
 STEP TIME COMPLETED        970.    ,  TOTAL TIME COMPLETED         970.    


  INCREMENT    98 STARTS. ATTEMPT NUMBER  1, TIME INCREMENT   10.0    
 
	UNSYMMETRIC NEW DIRECT SPARSE SOLVER RUNNING ON
 	1 HOST x 1 MPI RANK PER HOST x 8 THREADS PER RANK
        NUMBER OF EQUATIONS:  259128
        NUMBER OF RHS:        1
        NUMBER OF FLOPS:      5.492e+11
        SOLVER ELAPSED TIME:  3.1s

               CONVERGENCE CHECKS FOR EQUILIBRIUM ITERATION     1


 AVERAGE FORCE                       3.88       TIME AVG. FORCE        3.31    
 LARGEST SCALED RESIDUAL FORCE     -0.676       AT NODE      13865   DOF  1
   INSTANCE: CHD4-M-1                                                                        
  CORRESPONDING RESIDUAL FORCE     -0.676    
 LARGEST INCREMENT OF DISP.         1.991E-05   AT NODE      63614   DOF  2
   INSTANCE: CHD4-M-1                                                                        
 LARGEST CORRECTION TO DISP.        2.009E-06   AT NODE      18731   DOF  2
   INSTANCE: CHD4-M-1                                                                        
          FORCE     EQUILIBRIUM NOT ACHIEVED WITHIN TOLERANCE.

 AVERAGE HEAT FLUX                   0.00       TIME AVG. HEAT FLUX   1.000E-02
 ALL HEAT FLUX RESIDUALS ARE ZERO
 ALL TEMP.    INCREMENTS ARE ZERO
 ALL CORRECTION TO TEMP.    ARE ZERO
          THERE IS ZERO HEAT FLUX EVERYWHERE
 
	UNSYMMETRIC NEW DIRECT SPARSE SOLVER RUNNING ON
 	1 HOST x 1 MPI RANK PER HOST x 8 THREADS PER RANK
        NUMBER OF EQUATIONS:  259128
        NUMBER OF RHS:        1
        NUMBER OF FLOPS:      5.492e+11
        SOLVER ELAPSED TIME:  3.2s

               CONVERGENCE CHECKS FOR EQUILIBRIUM ITERATION     2


 AVERAGE FORCE                       3.88       TIME AVG. FORCE        3.31    
 LARGEST SCALED RESIDUAL FORCE      0.102       AT NODE      28880   DOF  1
   INSTANCE: CHD4-M-1                                                                        
  CORRESPONDING RESIDUAL FORCE      0.102    
 LARGEST INCREMENT OF DISP.         1.994E-05   AT NODE      63613   DOF  2
   INSTANCE: CHD4-M-1                                                                        
 LARGEST CORRECTION TO DISP.        2.122E-07   AT NODE       8734   DOF  2
   INSTANCE: CHD4-M-1                                                                        
          FORCE     EQUILIBRIUM NOT ACHIEVED WITHIN TOLERANCE.

 AVERAGE HEAT FLUX                   0.00       TIME AVG. HEAT FLUX   1.000E-02
 ALL HEAT FLUX RESIDUALS ARE ZERO
 ALL TEMP.    INCREMENTS ARE ZERO
 ALL CORRECTION TO TEMP.    ARE ZERO
          THERE IS ZERO HEAT FLUX EVERYWHERE
 
	UNSYMMETRIC NEW DIRECT SPARSE SOLVER RUNNING ON
 	1 HOST x 1 MPI RANK PER HOST x 8 THREADS PER RANK
        NUMBER OF EQUATIONS:  259128
        NUMBER OF RHS:        1
        NUMBER OF FLOPS:      5.492e+11
        SOLVER ELAPSED TIME:  3.0s

               CONVERGENCE CHECKS FOR EQUILIBRIUM ITERATION     3


 AVERAGE FORCE                       3.88       TIME AVG. FORCE        3.31    
 LARGEST SCALED RESIDUAL FORCE     -1.636E-02   AT NODE      13865   DOF  1
   INSTANCE: CHD4-M-1                                                                        
  CORRESPONDING RESIDUAL FORCE     -1.636E-02
 LARGEST INCREMENT OF DISP.         1.993E-05   AT NODE      63613   DOF  2
   INSTANCE: CHD4-M-1                                                                        
 LARGEST CORRECTION TO DISP.        6.331E-08   AT NODE      32082   DOF  2
   INSTANCE: CHD4-M-1                                                                        
          THE FORCE     EQUILIBRIUM EQUATIONS HAVE CONVERGED

 AVERAGE HEAT FLUX                   0.00       TIME AVG. HEAT FLUX   1.000E-02
 ALL HEAT FLUX RESIDUALS ARE ZERO
 ALL TEMP.    INCREMENTS ARE ZERO
 ALL CORRECTION TO TEMP.    ARE ZERO
          THERE IS ZERO HEAT FLUX EVERYWHERE

 MAXIMUM NON-PRESCRIBED INCREMENT IN TEMPERATURE IS    0.00    

 ITERATION SUMMARY FOR THE INCREMENT:   3 TOTAL ITERATIONS, OF WHICH
   0 ARE SEVERE DISCONTINUITY ITERATIONS AND  3 ARE EQUILIBRIUM ITERATIONS.

 TIME INCREMENT COMPLETED   10.0    ,  FRACTION OF STEP COMPLETED  0.980    
 STEP TIME COMPLETED        980.    ,  TOTAL TIME COMPLETED         980.    


  INCREMENT    99 STARTS. ATTEMPT NUMBER  1, TIME INCREMENT   10.0    
 
	UNSYMMETRIC NEW DIRECT SPARSE SOLVER RUNNING ON
 	1 HOST x 1 MPI RANK PER HOST x 8 THREADS PER RANK
        NUMBER OF EQUATIONS:  259128
        NUMBER OF RHS:        1
        NUMBER OF FLOPS:      5.492e+11
        SOLVER ELAPSED TIME:  3.0s

               CONVERGENCE CHECKS FOR EQUILIBRIUM ITERATION     1


 AVERAGE FORCE                       3.85       TIME AVG. FORCE        3.31    
 LARGEST SCALED RESIDUAL FORCE     -0.685       AT NODE      15926   DOF  1
   INSTANCE: CHD4-M-1                                                                        
  CORRESPONDING RESIDUAL FORCE     -0.685    
 LARGEST INCREMENT OF DISP.         2.024E-05   AT NODE      63613   DOF  2
   INSTANCE: CHD4-M-1                                                                        
 LARGEST CORRECTION TO DISP.        2.094E-06   AT NODE      18692   DOF  2
   INSTANCE: CHD4-M-1                                                                        
          FORCE     EQUILIBRIUM NOT ACHIEVED WITHIN TOLERANCE.

 AVERAGE HEAT FLUX                   0.00       TIME AVG. HEAT FLUX   1.000E-02
 ALL HEAT FLUX RESIDUALS ARE ZERO
 ALL TEMP.    INCREMENTS ARE ZERO
 ALL CORRECTION TO TEMP.    ARE ZERO
          THERE IS ZERO HEAT FLUX EVERYWHERE
 
	UNSYMMETRIC NEW DIRECT SPARSE SOLVER RUNNING ON
 	1 HOST x 1 MPI RANK PER HOST x 8 THREADS PER RANK
        NUMBER OF EQUATIONS:  259128
        NUMBER OF RHS:        1
        NUMBER OF FLOPS:      5.492e+11
        SOLVER ELAPSED TIME:  3.1s

               CONVERGENCE CHECKS FOR EQUILIBRIUM ITERATION     2


 AVERAGE FORCE                       3.85       TIME AVG. FORCE        3.31    
 LARGEST SCALED RESIDUAL FORCE     -0.126       AT NODE      25126   DOF  2
   INSTANCE: CHD4-M-1                                                                        
  CORRESPONDING RESIDUAL FORCE     -0.126    
 LARGEST INCREMENT OF DISP.         2.027E-05   AT NODE      63613   DOF  2
   INSTANCE: CHD4-M-1                                                                        
 LARGEST CORRECTION TO DISP.        2.129E-07   AT NODE      58096   DOF  2
   INSTANCE: CHD4-M-1                                                                        
          FORCE     EQUILIBRIUM NOT ACHIEVED WITHIN TOLERANCE.

 AVERAGE HEAT FLUX                   0.00       TIME AVG. HEAT FLUX   1.000E-02
 ALL HEAT FLUX RESIDUALS ARE ZERO
 ALL TEMP.    INCREMENTS ARE ZERO
 ALL CORRECTION TO TEMP.    ARE ZERO
          THERE IS ZERO HEAT FLUX EVERYWHERE
 
	UNSYMMETRIC NEW DIRECT SPARSE SOLVER RUNNING ON
 	1 HOST x 1 MPI RANK PER HOST x 8 THREADS PER RANK
        NUMBER OF EQUATIONS:  259128
        NUMBER OF RHS:        1
        NUMBER OF FLOPS:      5.492e+11
        SOLVER ELAPSED TIME:  3.0s

               CONVERGENCE CHECKS FOR EQUILIBRIUM ITERATION     3


 AVERAGE FORCE                       3.85       TIME AVG. FORCE        3.31    
 LARGEST SCALED RESIDUAL FORCE     -3.051E-02   AT NODE      24805   DOF  2
   INSTANCE: CHD4-M-1                                                                        
  CORRESPONDING RESIDUAL FORCE     -3.051E-02
 LARGEST INCREMENT OF DISP.         2.027E-05   AT NODE      63613   DOF  2
   INSTANCE: CHD4-M-1                                                                        
 LARGEST CORRECTION TO DISP.       -8.827E-08   AT NODE      18733   DOF  2
   INSTANCE: CHD4-M-1                                                                        
          FORCE     EQUILIBRIUM NOT ACHIEVED WITHIN TOLERANCE.

 AVERAGE HEAT FLUX                   0.00       TIME AVG. HEAT FLUX   1.000E-02
 ALL HEAT FLUX RESIDUALS ARE ZERO
 ALL TEMP.    INCREMENTS ARE ZERO
 ALL CORRECTION TO TEMP.    ARE ZERO
          THERE IS ZERO HEAT FLUX EVERYWHERE
 
	UNSYMMETRIC NEW DIRECT SPARSE SOLVER RUNNING ON
 	1 HOST x 1 MPI RANK PER HOST x 8 THREADS PER RANK
        NUMBER OF EQUATIONS:  259128
        NUMBER OF RHS:        1
        NUMBER OF FLOPS:      5.492e+11
        SOLVER ELAPSED TIME:  3.0s

               CONVERGENCE CHECKS FOR EQUILIBRIUM ITERATION     4


 AVERAGE FORCE                       3.85       TIME AVG. FORCE        3.31    
 LARGEST SCALED RESIDUAL FORCE      5.587E-03   AT NODE      63606   DOF  2
   INSTANCE: CHD4-M-1                                                                        
  CORRESPONDING RESIDUAL FORCE      5.587E-03
 LARGEST INCREMENT OF DISP.         2.027E-05   AT NODE      63613   DOF  2
   INSTANCE: CHD4-M-1                                                                        
 LARGEST CORRECTION TO DISP.       -2.057E-08   AT NODE      18733   DOF  2
   INSTANCE: CHD4-M-1                                                                        
          THE FORCE     EQUILIBRIUM EQUATIONS HAVE CONVERGED

 AVERAGE HEAT FLUX                   0.00       TIME AVG. HEAT FLUX   1.000E-02
 ALL HEAT FLUX RESIDUALS ARE ZERO
 ALL TEMP.    INCREMENTS ARE ZERO
 ALL CORRECTION TO TEMP.    ARE ZERO
          THERE IS ZERO HEAT FLUX EVERYWHERE

 MAXIMUM NON-PRESCRIBED INCREMENT IN TEMPERATURE IS    0.00    

 ITERATION SUMMARY FOR THE INCREMENT:   4 TOTAL ITERATIONS, OF WHICH
   0 ARE SEVERE DISCONTINUITY ITERATIONS AND  4 ARE EQUILIBRIUM ITERATIONS.

 TIME INCREMENT COMPLETED   10.0    ,  FRACTION OF STEP COMPLETED  0.990    
 STEP TIME COMPLETED        990.    ,  TOTAL TIME COMPLETED         990.    


  INCREMENT   100 STARTS. ATTEMPT NUMBER  1, TIME INCREMENT   10.0    
 
	UNSYMMETRIC NEW DIRECT SPARSE SOLVER RUNNING ON
 	1 HOST x 1 MPI RANK PER HOST x 8 THREADS PER RANK
        NUMBER OF EQUATIONS:  259128
        NUMBER OF RHS:        1
        NUMBER OF FLOPS:      5.492e+11
        SOLVER ELAPSED TIME:  3.0s

               CONVERGENCE CHECKS FOR EQUILIBRIUM ITERATION     1


 AVERAGE FORCE                       3.81       TIME AVG. FORCE        3.32    
 LARGEST SCALED RESIDUAL FORCE     -0.749       AT NODE      25163   DOF  2
   INSTANCE: CHD4-M-1                                                                        
  CORRESPONDING RESIDUAL FORCE     -0.749    
 LARGEST INCREMENT OF DISP.         2.061E-05   AT NODE      63612   DOF  2
   INSTANCE: CHD4-M-1                                                                        
 LARGEST CORRECTION TO DISP.        2.001E-06   AT NODE      18692   DOF  2
   INSTANCE: CHD4-M-1                                                                        
          FORCE     EQUILIBRIUM NOT ACHIEVED WITHIN TOLERANCE.

 AVERAGE HEAT FLUX                   0.00       TIME AVG. HEAT FLUX   1.000E-02
 ALL HEAT FLUX RESIDUALS ARE ZERO
 ALL TEMP.    INCREMENTS ARE ZERO
 ALL CORRECTION TO TEMP.    ARE ZERO
          THERE IS ZERO HEAT FLUX EVERYWHERE
 
	UNSYMMETRIC NEW DIRECT SPARSE SOLVER RUNNING ON
 	1 HOST x 1 MPI RANK PER HOST x 8 THREADS PER RANK
        NUMBER OF EQUATIONS:  259128
        NUMBER OF RHS:        1
        NUMBER OF FLOPS:      5.492e+11
        SOLVER ELAPSED TIME:  3.1s

               CONVERGENCE CHECKS FOR EQUILIBRIUM ITERATION     2


 AVERAGE FORCE                       3.81       TIME AVG. FORCE        3.32    
 LARGEST SCALED RESIDUAL FORCE      0.164       AT NODE      11669   DOF  2
   INSTANCE: CHD4-M-1                                                                        
  CORRESPONDING RESIDUAL FORCE      0.164    
 LARGEST INCREMENT OF DISP.         2.066E-05   AT NODE      63612   DOF  2
   INSTANCE: CHD4-M-1                                                                        
 LARGEST CORRECTION TO DISP.        2.004E-07   AT NODE      58096   DOF  2
   INSTANCE: CHD4-M-1                                                                        
          FORCE     EQUILIBRIUM NOT ACHIEVED WITHIN TOLERANCE.

 AVERAGE HEAT FLUX                   0.00       TIME AVG. HEAT FLUX   1.000E-02
 ALL HEAT FLUX RESIDUALS ARE ZERO
 ALL TEMP.    INCREMENTS ARE ZERO
 ALL CORRECTION TO TEMP.    ARE ZERO
          THERE IS ZERO HEAT FLUX EVERYWHERE
 
	UNSYMMETRIC NEW DIRECT SPARSE SOLVER RUNNING ON
 	1 HOST x 1 MPI RANK PER HOST x 8 THREADS PER RANK
        NUMBER OF EQUATIONS:  259128
        NUMBER OF RHS:        1
        NUMBER OF FLOPS:      5.492e+11
        SOLVER ELAPSED TIME:  3.1s

               CONVERGENCE CHECKS FOR EQUILIBRIUM ITERATION     3


 AVERAGE FORCE                       3.81       TIME AVG. FORCE        3.32    
 LARGEST SCALED RESIDUAL FORCE      6.513E-02   AT NODE      11327   DOF  2
   INSTANCE: CHD4-M-1                                                                        
  CORRESPONDING RESIDUAL FORCE      6.513E-02
 LARGEST INCREMENT OF DISP.         2.065E-05   AT NODE      63612   DOF  2
   INSTANCE: CHD4-M-1                                                                        
 LARGEST CORRECTION TO DISP.       -1.113E-07   AT NODE      18693   DOF  2
   INSTANCE: CHD4-M-1                                                                        
          FORCE     EQUILIBRIUM NOT ACHIEVED WITHIN TOLERANCE.

 AVERAGE HEAT FLUX                   0.00       TIME AVG. HEAT FLUX   1.000E-02
 ALL HEAT FLUX RESIDUALS ARE ZERO
 ALL TEMP.    INCREMENTS ARE ZERO
 ALL CORRECTION TO TEMP.    ARE ZERO
          THERE IS ZERO HEAT FLUX EVERYWHERE
 
	UNSYMMETRIC NEW DIRECT SPARSE SOLVER RUNNING ON
 	1 HOST x 1 MPI RANK PER HOST x 8 THREADS PER RANK
        NUMBER OF EQUATIONS:  259128
        NUMBER OF RHS:        1
        NUMBER OF FLOPS:      5.492e+11
        SOLVER ELAPSED TIME:  3.0s

               CONVERGENCE CHECKS FOR EQUILIBRIUM ITERATION     4


 AVERAGE FORCE                       3.81       TIME AVG. FORCE        3.32    
 LARGEST SCALED RESIDUAL FORCE      3.303E-02   AT NODE      50550   DOF  2
   INSTANCE: CHD4-M-1                                                                        
  CORRESPONDING RESIDUAL FORCE      3.303E-02
 LARGEST INCREMENT OF DISP.         2.064E-05   AT NODE      63612   DOF  2
   INSTANCE: CHD4-M-1                                                                        
 LARGEST CORRECTION TO DISP.       -5.473E-08   AT NODE      18732   DOF  2
   INSTANCE: CHD4-M-1                                                                        
          FORCE     EQUILIBRIUM NOT ACHIEVED WITHIN TOLERANCE.

 AVERAGE HEAT FLUX                   0.00       TIME AVG. HEAT FLUX   1.000E-02
 ALL HEAT FLUX RESIDUALS ARE ZERO
 ALL TEMP.    INCREMENTS ARE ZERO
 ALL CORRECTION TO TEMP.    ARE ZERO
          THERE IS ZERO HEAT FLUX EVERYWHERE
 
	UNSYMMETRIC NEW DIRECT SPARSE SOLVER RUNNING ON
 	1 HOST x 1 MPI RANK PER HOST x 8 THREADS PER RANK
        NUMBER OF EQUATIONS:  259128
        NUMBER OF RHS:        1
        NUMBER OF FLOPS:      5.492e+11
        SOLVER ELAPSED TIME:  3.0s

               CONVERGENCE CHECKS FOR EQUILIBRIUM ITERATION     5


 AVERAGE FORCE                       3.81       TIME AVG. FORCE        3.32    
 LARGEST SCALED RESIDUAL FORCE     -7.411E-03   AT NODE      25620   DOF  2
   INSTANCE: CHD4-M-1                                                                        
  CORRESPONDING RESIDUAL FORCE     -7.411E-03
 LARGEST INCREMENT OF DISP.         2.064E-05   AT NODE      63612   DOF  2
   INSTANCE: CHD4-M-1                                                                        
 LARGEST CORRECTION TO DISP.       -1.501E-08   AT NODE      18732   DOF  2
   INSTANCE: CHD4-M-1                                                                        
          THE FORCE     EQUILIBRIUM EQUATIONS HAVE CONVERGED

 AVERAGE HEAT FLUX                   0.00       TIME AVG. HEAT FLUX   1.000E-02
 ALL HEAT FLUX RESIDUALS ARE ZERO
 ALL TEMP.    INCREMENTS ARE ZERO
 ALL CORRECTION TO TEMP.    ARE ZERO
          THERE IS ZERO HEAT FLUX EVERYWHERE

 MAXIMUM NON-PRESCRIBED INCREMENT IN TEMPERATURE IS    0.00    

 ITERATION SUMMARY FOR THE INCREMENT:   5 TOTAL ITERATIONS, OF WHICH
   0 ARE SEVERE DISCONTINUITY ITERATIONS AND  5 ARE EQUILIBRIUM ITERATIONS.

 TIME INCREMENT COMPLETED   10.0    ,  FRACTION OF STEP COMPLETED   1.00    
 STEP TIME COMPLETED       1.000E+03,  TOTAL TIME COMPLETED        1.000E+03


          THE ANALYSIS HAS BEEN COMPLETED



     ANALYSIS SUMMARY:
     TOTAL OF        100  INCREMENTS
                       0  CUTBACKS IN AUTOMATIC INCREMENTATION
                     200  ITERATIONS INCLUDING CONTACT ITERATIONS IF PRESENT
                     200  PASSES THROUGH THE EQUATION SOLVER OF WHICH 
                     200  INVOLVE MATRIX DECOMPOSITION, INCLUDING
                       0  DECOMPOSITION(S) OF THE MASS MATRIX
                       1  REORDERING OF EQUATIONS TO MINIMIZE WAVEFRONT
                       0  ADDITIONAL RESIDUAL EVALUATIONS FOR LINE SEARCHES
                       0  ADDITIONAL OPERATOR EVALUATIONS FOR LINE SEARCHES
                       6  WARNING MESSAGES DURING USER INPUT PROCESSING
                       0  WARNING MESSAGES DURING ANALYSIS
                       0  ANALYSIS WARNINGS ARE NUMERICAL PROBLEM MESSAGES
                       0  ANALYSIS WARNINGS ARE NEGATIVE EIGENVALUE MESSAGES
                       0  ERROR MESSAGES



     JOB TIME SUMMARY
       USER TIME (SEC)      =     2.38E+03
       SYSTEM TIME (SEC)    =      40.    
       TOTAL CPU TIME (SEC) =     2.42E+03
       WALLCLOCK TIME (SEC) =          953
       MEMORY PEAK (GB)     =            1
