1

   Abaqus 2023.HF4                                  Date 01-Jul-2024   Time 11:30:52
   For use by AALTO UNIVERSITY under license from Dassault Systemes or its subsidiary.



                         The Abaqus Software is a product of:

                           Dassault Systemes SIMULIA Corp.
                           1301 Atwood Avenue, Suite 101W
                              Johnston, RI 02919, USA
 


                   The Abaqus Software is available only under license
                   from Dassault Systemes or its subsidiary and may be
                   used or reproduced only in accordance with the terms
                   of such license.
 
                          On machine L23-0203 
                          you are authorized to run
                          Abaqus/Standard until 20-Feb-2025

                          Your site id is: 200000000014764 


 
                    For assistance or any other information you may
                    obtain contact information for your local office
                    from the world wide web at:

                      https://www.3ds.com/products-services/simulia/services-support/

 
                * * * * * * * * * * * * * * * * * * * * * * * * * * * * * * 
                *                                                         * 
                *                   *****************                     * 
                *                   *  N O T I C E  *                     * 
                *                   *****************                     * 
                *                                                         * 
                *                                                         * 
                *                     Abaqus 2023.HF4                     * 
                *                                                         * 
                *       BUILD ID: 2023_07_21-20.45.57 RELr425 183702      * 
                *                                                         * 
                *                                                         * 
                *  Please make sure you are using                         * 
                *  release Abaqus 2023.HF4 manuals                        * 
                *  plus the notes accompanying this release.              * 
                *                                                         * 
                *                                                         * 
                *                                                         * 
                *                                                         * 
                *                                                         * 
                *   This program may not be used for commercial purposes  * 
                *           without payment of a commercial fee.          * 
                *                                                         * 
                * * * * * * * * * * * * * * * * * * * * * * * * * * * * * * 


 



     PROCESSING PART, INSTANCE, AND ASSEMBLY INFORMATION
   *******************************************************


     END PROCESSING PART, INSTANCE, AND ASSEMBLY INFORMATION
   ***********************************************************




     OPTIONS BEING PROCESSED
   ***************************


  *Heading
  *Element, type=C3D8T
  *Elset, elset=ASSEMBLY_CHD4-M-1_SET-32
  *Elset, elset=ASSEMBLY_SET-1
  *Elset, elset=ASSEMBLY_SET-10
  *Elset, elset=ASSEMBLY_SET-11
  *Elset, elset=ASSEMBLY_SET-12
  *Elset, elset=ASSEMBLY_SET-13
  *Elset, elset=ASSEMBLY_SET-4
  *Elset, elset=ASSEMBLY_SET-6
  *Elset, elset=ASSEMBLY_SET-7
  *Elset, elset=ASSEMBLY_SET-8
  *Elset, elset=ASSEMBLY_SET-9
  *coupledtemperature-displacement, creep=NONE, deltmx=1
  *material, name=CP1000-M
  *density
  *depvar
  *usermaterial, constants=4, type=THERMAL
  *usermaterial, constants=162, type=MECHANICAL
  *solidsection, elset=ASSEMBLY_CHD4-M-1_SET-32, material=CP1000-M
  *solidsection, elset=ASSEMBLY_CHD4-M-1_SET-32, material=CP1000-M
  *boundary
  *boundary
  *boundary, amplitude=AMP-1
  *boundary
  *boundary
  *boundary, amplitude=AMP-1
  *output, field, numberinterval=100
  *output, history, variable=PRESELECT
  *output, field, numberinterval=100
  *output, history, variable=PRESELECT
  *output, field, numberinterval=100
  *output, history, variable=PRESELECT
  
                               E L E M E N T   Q U A L I T Y  C H E C K S        
  
  
 ***NOTES: DISTORTED ISOPARAMETRIC ELEMENTS: ANGLE BETWEEN ISOPARAMETRIC LINES 
           IS LESS THAN 45 DEGREES OR GREATER THAN 135 DEGREES.
  
           TETRAHEDRAL QUALITY MEASURE: VOLUME OF TETRAHEDRON DIVIDED BY THE 
           VOLUME OF EQUILATERAL TETRAHEDRON WITH SAME CIRCUMSPHERE RADIUS; 
           0 FOR DEGENERATE TETRAHEDRON AND 1 FOR EQUILATERIAL TETRAHEDRON. IT 
           IS RECOMMENDED THAT THE TETRAHEDRAL QUALITY MEASURE BE GREATER THAN 
           0.02, THE MIN INTERIOR (DIHEDRAL) ANGLE BE GREATER THAN 10 DEGREES, 
           AND THE MAX INTERIOR (DIHEDRAL) ANGLE BE LESS THAN 160 DEGREES. 
  
           MODIFIED TETRAHEDRAL QUALITY MEASURE: ANGLES BETWEEN THE TWO LINE 
           SEGMENTS ON EACH EDGE; THE EDGES OF MODIFIED TETRAHEDRAL SHOULD BE 
           AS STRAIGHT AS POSSIBLE. IT IS RECOMMENDED THAT THE ANGLE BETWEEN 
           THE TWO LINE SEGMENTS ON EACH EDGE IS BETWEEN 160 AND 180 DEGREES. 
  
           TRIANGULAR QUALITY MEASURE: AREA OF TRIANGLE DIVIDED BY THE AREA OF 
           EQUILATERAL TRIANGLE WITH SAME CIRCUMCIRCLE RADIUS; 0 FOR DEGENERATE 
           TRIANGLE AND 1 FOR EQUILATERAL TRIANGLE. IT IS RECOMMENDED THAT THE
           TRIANGULAR QUALITY MEASURE BE GREATER THAN 0.01, THE MIN INTERIOR 
           ANGLE BE GREATER THAN 10 DEGREES, AND THE MAX INTERIOR ANGLE BE LESS 
           THAN 160 DEGREES. 
  
           NODAL ADJUSTMENTS ARISING FROM CONTACT INTERACTIONS AND/OR TIE 
           CONSTRAINTS CAN CAUSE SEVERE ELEMENT DISTORTION. IT MAY BE NECESSARY 
           TO REMESH IN ORDER TO REDUCE THE AMOUNT OF ADJUSTMENT. 

 ***WARNING: 336 elements are distorted. Either the isoparametric angles are 
             out of the suggested limits or the triangular or tetrahedral 
             quality measure is bad. The elements have been identified in 
             element set WarnElemDistorted.
  
 --------------------------------------------------------------------------------
 Distorted isoparametric elements
  
      Element        Min/max angle   Adjusted nodes 
 ------------------ ---------------- -------------- 
     CHD4-M-1.28861          43.6842       NO       
     CHD4-M-1.28864          29.9943       NO       
     CHD4-M-1.28873           27.573       NO       
     CHD4-M-1.28875          41.3591       NO       
     CHD4-M-1.28877          44.6515       NO       
     CHD4-M-1.28881          26.9428       NO       
     CHD4-M-1.28884          21.5087       NO       
     CHD4-M-1.28892          42.9027       NO       
     CHD4-M-1.28894           37.173       NO       
     CHD4-M-1.28895          27.2032       NO       
     CHD4-M-1.28897          43.9154       NO       
     CHD4-M-1.28898          42.9205       NO       
     CHD4-M-1.28911             43.8       NO       
     CHD4-M-1.28912           35.205       NO       
     CHD4-M-1.28913          43.8843       NO       
     CHD4-M-1.28919          33.4039       NO       
     CHD4-M-1.28920          11.0459       NO       
     CHD4-M-1.28929          31.8677       NO       
     CHD4-M-1.28937          15.7349       NO       
     CHD4-M-1.28938          32.3825       NO       
     CHD4-M-1.28942          11.1931       NO       
     CHD4-M-1.29228          43.6842       NO       
     CHD4-M-1.29231          29.9943       NO       
     CHD4-M-1.29240           27.573       NO       
     CHD4-M-1.29242          41.3591       NO       
     CHD4-M-1.29244          44.6515       NO       
     CHD4-M-1.29248          26.9428       NO       
     CHD4-M-1.29251          21.5087       NO       
     CHD4-M-1.29259          42.9027       NO       
     CHD4-M-1.29261           37.173       NO       
     CHD4-M-1.29262          27.2032       NO       
     CHD4-M-1.29264          43.9154       NO       
     CHD4-M-1.29265          42.9205       NO       
     CHD4-M-1.29278             43.8       NO       
     CHD4-M-1.29279           35.205       NO       
     CHD4-M-1.29280          43.8843       NO       
     CHD4-M-1.29286          33.4039       NO       
     CHD4-M-1.29287          11.0459       NO       
     CHD4-M-1.29296          31.8677       NO       
     CHD4-M-1.29304          15.7349       NO       
     CHD4-M-1.29305          32.3825       NO       
     CHD4-M-1.29309          11.1931       NO       
     CHD4-M-1.29595          43.6842       NO       
     CHD4-M-1.29598          29.9943       NO       
     CHD4-M-1.29607           27.573       NO       
     CHD4-M-1.29609          41.3591       NO       
     CHD4-M-1.29611          44.6515       NO       
     CHD4-M-1.29615          26.9428       NO       
     CHD4-M-1.29618          21.5087       NO       
     CHD4-M-1.29626          42.9027       NO       
     CHD4-M-1.29628           37.173       NO       
     CHD4-M-1.29629          27.2032       NO       
     CHD4-M-1.29631          43.9154       NO       
     CHD4-M-1.29632          42.9205       NO       
     CHD4-M-1.29645             43.8       NO       
     CHD4-M-1.29646           35.205       NO       
     CHD4-M-1.29647          43.8843       NO       
     CHD4-M-1.29653          33.4039       NO       
     CHD4-M-1.29654          11.0459       NO       
     CHD4-M-1.29663          31.8677       NO       
     CHD4-M-1.29671          15.7349       NO       
     CHD4-M-1.29672          32.3825       NO       
     CHD4-M-1.29676          11.1931       NO       
     CHD4-M-1.29962          43.6842       NO       
     CHD4-M-1.29965          29.9943       NO       
     CHD4-M-1.29974           27.573       NO       
     CHD4-M-1.29976          41.3591       NO       
     CHD4-M-1.29978          44.6515       NO       
     CHD4-M-1.29982          26.9428       NO       
     CHD4-M-1.29985          21.5087       NO       
     CHD4-M-1.29993          42.9027       NO       
     CHD4-M-1.29995           37.173       NO       
     CHD4-M-1.29996          27.2032       NO       
     CHD4-M-1.29998          43.9154       NO       
     CHD4-M-1.29999          42.9205       NO       
     CHD4-M-1.30012             43.8       NO       
     CHD4-M-1.30013           35.205       NO       
     CHD4-M-1.30014          43.8843       NO       
     CHD4-M-1.30020          33.4039       NO       
     CHD4-M-1.30021          11.0459       NO       
     CHD4-M-1.30030          31.8677       NO       
     CHD4-M-1.30038          15.7349       NO       
     CHD4-M-1.30039          32.3825       NO       
     CHD4-M-1.30043          11.1931       NO       
     CHD4-M-1.30329          43.6842       NO       
     CHD4-M-1.30332          29.9943       NO       
     CHD4-M-1.30341           27.573       NO       
     CHD4-M-1.30343          41.3591       NO       
     CHD4-M-1.30345          44.6515       NO       
     CHD4-M-1.30349          26.9428       NO       
     CHD4-M-1.30352          21.5087       NO       
     CHD4-M-1.30360          42.9027       NO       
     CHD4-M-1.30362           37.173       NO       
     CHD4-M-1.30363          27.2032       NO       
     CHD4-M-1.30365          43.9154       NO       
     CHD4-M-1.30366          42.9205       NO       
     CHD4-M-1.30379             43.8       NO       
     CHD4-M-1.30380           35.205       NO       
     CHD4-M-1.30381          43.8843       NO       
     CHD4-M-1.30387          33.4039       NO       
     CHD4-M-1.30388          11.0459       NO       
     CHD4-M-1.30397          31.8677       NO       
     CHD4-M-1.30405          15.7349       NO       
     CHD4-M-1.30406          32.3825       NO       
     CHD4-M-1.30410          11.1931       NO       
     CHD4-M-1.30696          43.6842       NO       
     CHD4-M-1.30699          29.9943       NO       
     CHD4-M-1.30708           27.573       NO       
     CHD4-M-1.30710          41.3591       NO       
     CHD4-M-1.30712          44.6515       NO       
     CHD4-M-1.30716          26.9428       NO       
     CHD4-M-1.30719          21.5087       NO       
     CHD4-M-1.30727          42.9027       NO       
     CHD4-M-1.30729           37.173       NO       
     CHD4-M-1.30730          27.2032       NO       
     CHD4-M-1.30732          43.9154       NO       
     CHD4-M-1.30733          42.9205       NO       
     CHD4-M-1.30746             43.8       NO       
     CHD4-M-1.30747           35.205       NO       
     CHD4-M-1.30748          43.8843       NO       
     CHD4-M-1.30754          33.4039       NO       
     CHD4-M-1.30755          11.0459       NO       
     CHD4-M-1.30764          31.8677       NO       
     CHD4-M-1.30772          15.7349       NO       
     CHD4-M-1.30773          32.3825       NO       
     CHD4-M-1.30777          11.1931       NO       
     CHD4-M-1.31063          43.6842       NO       
     CHD4-M-1.31066          29.9943       NO       
     CHD4-M-1.31075           27.573       NO       
     CHD4-M-1.31077          41.3591       NO       
     CHD4-M-1.31079          44.6515       NO       
     CHD4-M-1.31083          26.9428       NO       
     CHD4-M-1.31086          21.5087       NO       
     CHD4-M-1.31094          42.9027       NO       
     CHD4-M-1.31096           37.173       NO       
     CHD4-M-1.31097          27.2032       NO       
     CHD4-M-1.31099          43.9154       NO       
     CHD4-M-1.31100          42.9205       NO       
     CHD4-M-1.31113             43.8       NO       
     CHD4-M-1.31114           35.205       NO       
     CHD4-M-1.31115          43.8843       NO       
     CHD4-M-1.31121          33.4039       NO       
     CHD4-M-1.31122          11.0459       NO       
     CHD4-M-1.31131          31.8677       NO       
     CHD4-M-1.31139          15.7349       NO       
     CHD4-M-1.31140          32.3825       NO       
     CHD4-M-1.31144          11.1931       NO       
     CHD4-M-1.31430          43.6842       NO       
     CHD4-M-1.31433          29.9943       NO       
     CHD4-M-1.31442           27.573       NO       
     CHD4-M-1.31444          41.3591       NO       
     CHD4-M-1.31446          44.6515       NO       
     CHD4-M-1.31450          26.9428       NO       
     CHD4-M-1.31453          21.5087       NO       
     CHD4-M-1.31461          42.9027       NO       
     CHD4-M-1.31463           37.173       NO       
     CHD4-M-1.31464          27.2032       NO       
     CHD4-M-1.31466          43.9154       NO       
     CHD4-M-1.31467          42.9205       NO       
     CHD4-M-1.31480             43.8       NO       
     CHD4-M-1.31481           35.205       NO       
     CHD4-M-1.31482          43.8843       NO       
     CHD4-M-1.31488          33.4039       NO       
     CHD4-M-1.31489          11.0459       NO       
     CHD4-M-1.31498          31.8677       NO       
     CHD4-M-1.31506          15.7349       NO       
     CHD4-M-1.31507          32.3825       NO       
     CHD4-M-1.31511          11.1931       NO       
     CHD4-M-1.52435          44.2137       NO       
     CHD4-M-1.52563          38.4775       NO       
     CHD4-M-1.52586          38.3804       NO       
     CHD4-M-1.52604          42.9779       NO       
     CHD4-M-1.52607          40.3817       NO       
     CHD4-M-1.52620          36.4387       NO       
     CHD4-M-1.52622          43.0998       NO       
     CHD4-M-1.52626          31.7652       NO       
     CHD4-M-1.52641          20.8368       NO       
     CHD4-M-1.52650          31.5644       NO       
     CHD4-M-1.52651          31.5122       NO       
     CHD4-M-1.52654          44.2778       NO       
     CHD4-M-1.52661          26.7314       NO       
     CHD4-M-1.52664          27.2995       NO       
     CHD4-M-1.52667          38.6959       NO       
     CHD4-M-1.52668          14.4217       NO       
     CHD4-M-1.52676          25.1135       NO       
     CHD4-M-1.52682           33.333       NO       
     CHD4-M-1.52683          42.4588       NO       
     CHD4-M-1.52687           38.572       NO       
     CHD4-M-1.52692          44.7485       NO       
     CHD4-M-1.52800          44.2137       NO       
     CHD4-M-1.52928          38.4775       NO       
     CHD4-M-1.52951          38.3804       NO       
     CHD4-M-1.52969          42.9779       NO       
     CHD4-M-1.52972          40.3817       NO       
     CHD4-M-1.52985          36.4387       NO       
     CHD4-M-1.52987          43.0998       NO       
     CHD4-M-1.52991          31.7652       NO       
     CHD4-M-1.53006          20.8368       NO       
     CHD4-M-1.53015          31.5644       NO       
     CHD4-M-1.53016          31.5122       NO       
     CHD4-M-1.53019          44.2778       NO       
     CHD4-M-1.53026          26.7314       NO       
     CHD4-M-1.53029          27.2995       NO       
     CHD4-M-1.53032          38.6959       NO       
     CHD4-M-1.53033          14.4217       NO       
     CHD4-M-1.53041          25.1135       NO       
     CHD4-M-1.53047           33.333       NO       
     CHD4-M-1.53048          42.4588       NO       
     CHD4-M-1.53052           38.572       NO       
     CHD4-M-1.53057          44.7485       NO       
     CHD4-M-1.53165          44.2137       NO       
     CHD4-M-1.53293          38.4775       NO       
     CHD4-M-1.53316          38.3804       NO       
     CHD4-M-1.53334          42.9779       NO       
     CHD4-M-1.53337          40.3817       NO       
     CHD4-M-1.53350          36.4387       NO       
     CHD4-M-1.53352          43.0998       NO       
     CHD4-M-1.53356          31.7652       NO       
     CHD4-M-1.53371          20.8368       NO       
     CHD4-M-1.53380          31.5644       NO       
     CHD4-M-1.53381          31.5122       NO       
     CHD4-M-1.53384          44.2778       NO       
     CHD4-M-1.53391          26.7314       NO       
     CHD4-M-1.53394          27.2995       NO       
     CHD4-M-1.53397          38.6959       NO       
     CHD4-M-1.53398          14.4217       NO       
     CHD4-M-1.53406          25.1135       NO       
     CHD4-M-1.53412           33.333       NO       
     CHD4-M-1.53413          42.4588       NO       
     CHD4-M-1.53417           38.572       NO       
     CHD4-M-1.53422          44.7485       NO       
     CHD4-M-1.53530          44.2137       NO       
     CHD4-M-1.53658          38.4775       NO       
     CHD4-M-1.53681          38.3804       NO       
     CHD4-M-1.53699          42.9779       NO       
     CHD4-M-1.53702          40.3817       NO       
     CHD4-M-1.53715          36.4387       NO       
     CHD4-M-1.53717          43.0998       NO       
     CHD4-M-1.53721          31.7652       NO       
     CHD4-M-1.53736          20.8368       NO       
     CHD4-M-1.53745          31.5644       NO       
     CHD4-M-1.53746          31.5122       NO       
     CHD4-M-1.53749          44.2778       NO       
     CHD4-M-1.53756          26.7314       NO       
     CHD4-M-1.53759          27.2995       NO       
     CHD4-M-1.53762          38.6959       NO       
     CHD4-M-1.53763          14.4217       NO       
     CHD4-M-1.53771          25.1135       NO       
     CHD4-M-1.53777           33.333       NO       
     CHD4-M-1.53778          42.4588       NO       
     CHD4-M-1.53782           38.572       NO       
     CHD4-M-1.53787          44.7485       NO       
     CHD4-M-1.53895          44.2137       NO       
     CHD4-M-1.54023          38.4775       NO       
     CHD4-M-1.54046          38.3804       NO       
     CHD4-M-1.54064          42.9779       NO       
     CHD4-M-1.54067          40.3817       NO       
     CHD4-M-1.54080          36.4387       NO       
     CHD4-M-1.54082          43.0998       NO       
     CHD4-M-1.54086          31.7652       NO       
     CHD4-M-1.54101          20.8368       NO       
     CHD4-M-1.54110          31.5644       NO       
     CHD4-M-1.54111          31.5122       NO       
     CHD4-M-1.54114          44.2778       NO       
     CHD4-M-1.54121          26.7314       NO       
     CHD4-M-1.54124          27.2995       NO       
     CHD4-M-1.54127          38.6959       NO       
     CHD4-M-1.54128          14.4217       NO       
     CHD4-M-1.54136          25.1135       NO       
     CHD4-M-1.54142           33.333       NO       
     CHD4-M-1.54143          42.4588       NO       
     CHD4-M-1.54147           38.572       NO       
     CHD4-M-1.54152          44.7485       NO       
     CHD4-M-1.54260          44.2137       NO       
     CHD4-M-1.54388          38.4775       NO       
     CHD4-M-1.54411          38.3804       NO       
     CHD4-M-1.54429          42.9779       NO       
     CHD4-M-1.54432          40.3817       NO       
     CHD4-M-1.54445          36.4387       NO       
     CHD4-M-1.54447          43.0998       NO       
     CHD4-M-1.54451          31.7652       NO       
     CHD4-M-1.54466          20.8368       NO       
     CHD4-M-1.54475          31.5644       NO       
     CHD4-M-1.54476          31.5122       NO       
     CHD4-M-1.54479          44.2778       NO       
     CHD4-M-1.54486          26.7314       NO       
     CHD4-M-1.54489          27.2995       NO       
     CHD4-M-1.54492          38.6959       NO       
     CHD4-M-1.54493          14.4217       NO       
     CHD4-M-1.54501          25.1135       NO       
     CHD4-M-1.54507           33.333       NO       
     CHD4-M-1.54508          42.4588       NO       
     CHD4-M-1.54512           38.572       NO       
     CHD4-M-1.54517          44.7485       NO       
     CHD4-M-1.54625          44.2137       NO       
     CHD4-M-1.54753          38.4775       NO       
     CHD4-M-1.54776          38.3804       NO       
     CHD4-M-1.54794          42.9779       NO       
     CHD4-M-1.54797          40.3817       NO       
     CHD4-M-1.54810          36.4387       NO       
     CHD4-M-1.54812          43.0998       NO       
     CHD4-M-1.54816          31.7652       NO       
     CHD4-M-1.54831          20.8368       NO       
     CHD4-M-1.54840          31.5644       NO       
     CHD4-M-1.54841          31.5122       NO       
     CHD4-M-1.54844          44.2778       NO       
     CHD4-M-1.54851          26.7314       NO       
     CHD4-M-1.54854          27.2995       NO       
     CHD4-M-1.54857          38.6959       NO       
     CHD4-M-1.54858          14.4217       NO       
     CHD4-M-1.54866          25.1135       NO       
     CHD4-M-1.54872           33.333       NO       
     CHD4-M-1.54873          42.4588       NO       
     CHD4-M-1.54877           38.572       NO       
     CHD4-M-1.54882          44.7485       NO       
     CHD4-M-1.54990          44.2137       NO       
     CHD4-M-1.55118          38.4775       NO       
     CHD4-M-1.55141          38.3804       NO       
     CHD4-M-1.55159          42.9779       NO       
     CHD4-M-1.55162          40.3817       NO       
     CHD4-M-1.55175          36.4387       NO       
     CHD4-M-1.55177          43.0998       NO       
     CHD4-M-1.55181          31.7652       NO       
     CHD4-M-1.55196          20.8368       NO       
     CHD4-M-1.55205          31.5644       NO       
     CHD4-M-1.55206          31.5122       NO       
     CHD4-M-1.55209          44.2778       NO       
     CHD4-M-1.55216          26.7314       NO       
     CHD4-M-1.55219          27.2995       NO       
     CHD4-M-1.55222          38.6959       NO       
     CHD4-M-1.55223          14.4217       NO       
     CHD4-M-1.55231          25.1135       NO       
     CHD4-M-1.55237           33.333       NO       
     CHD4-M-1.55238          42.4588       NO       
     CHD4-M-1.55242           38.572       NO       
     CHD4-M-1.55247          44.7485       NO       
  
  
  *Step, name=Step-1, nlgeom=YES, inc=100000
  *output, field, numberinterval=100
  *output, history, variable=PRESELECT
  *Step, name=Step-1, nlgeom=YES, inc=100000
  *Step, name=Step-1, nlgeom=YES, inc=100000
  *coupledtemperature-displacement, creep=NONE, deltmx=1
  *boundary
  *boundary, amplitude=AMP-1
  *output, field, numberinterval=100
  *nodeoutput
  *output, history, variable=PRESELECT
  *endstep

 ***WARNING: OUTPUT AT EXACT, PREDEFINED TIME POINTS WAS REQUESTED IN THIS 
             STEP. Abaqus MIGHT ADJUST THE TIME INCREMENTATION BUT WILL NOT 
             VIOLATE THE MINIMUM TIME INCREMENT ALLOWED IN THE STEP IN ORDER TO 
             WRITE OUTPUT AT THOSE POINTS. CONSEQUENTLY, IN SOME CASES Abaqus 
             MIGHTWRITE OUTPUT IMMEDIATELY AFTER THE SPECIFIED TIME POINTS, 
             INSTEAD OF AT THE TIME POINTS. IN ADDITION, THE NUMBER OF 
             INCREMENTS REQUIRED TO COMPLETE THE STEP WILL IN GENERAL INCREASE.
  *boundary
  *Step, name=Step-1, nlgeom=YES, inc=100000
  *coupledtemperature-displacement, creep=NONE, deltmx=1
  *boundary
  *boundary, amplitude=AMP-1
  *endstep

 ***WARNING: Boundary conditions are specified on inactive dof 4 at 585 nodes. 
             The nodes have been identified in node set WarnNodeBCInactiveDof4.

 ***WARNING: Boundary conditions are specified on inactive dof 5 at 585 nodes. 
             The nodes have been identified in node set WarnNodeBCInactiveDof5.

 ***WARNING: Boundary conditions are specified on inactive dof 6 at 585 nodes. 
             The nodes have been identified in node set WarnNodeBCInactiveDof6.



                            P R O B L E M   S I Z E


          NUMBER OF ELEMENTS IS                                 55264
          NUMBER OF NODES IS                                    64782
          NUMBER OF NODES DEFINED BY THE USER                   64782
          TOTAL NUMBER OF VARIABLES IN THE MODEL               259128
          (DEGREES OF FREEDOM PLUS MAX NO. OF ANY LAGRANGE MULTIPLIER
           VARIABLES. INCLUDE *PRINT,SOLVE=YES TO GET THE ACTUAL NUMBER.)



                              END OF USER INPUT PROCESSING



     JOB TIME SUMMARY
       USER TIME (SEC)      =      1.6    
       SYSTEM TIME (SEC)    =     0.10    
       TOTAL CPU TIME (SEC) =      1.7    
       WALLCLOCK TIME (SEC) =            2
1

   Abaqus 2023.HF4                                  Date 01-Jul-2024   Time 11:30:59
   For use by AALTO UNIVERSITY under license from Dassault Systemes or its subsidiary.

                                                                                               STEP    1  INCREMENT    1
                                                                                          TIME COMPLETED IN THIS STEP   0.00    


                        S T E P       1     C O U P L E D - T E M P E R A T U R E - D I S P L A C E M E N T   A N A L Y S I S


                                                                                          

     AUTOMATIC TIME CONTROL WITH -
          A SUGGESTED INITIAL TIME INCREMENT OF                 10.0    
          AND A TOTAL TIME PERIOD OF                           1.000E+03
          THE MINIMUM TIME INCREMENT ALLOWED IS                1.000E-02
          THE MAXIMUM TIME INCREMENT ALLOWED IS                 10.0    

          CREEP AND SWELLING EFFECTS ARE OMITTED IN THIS STEP

     THE SIZE OF THE TIME INCREMENT IS CONTROLLED BY -
          THE TEMPERATURE CHANGE PER INCREMENT NOT EXCEEDING            1.00    
          THE RATE DEPENDENCY WILL BE CONSIDERED IN THIS STEP

          CREEP AND SWELLING EFFECTS WILL BE IGNORED.

          LARGE DISPLACEMENT THEORY WILL BE USED

          UNSYMMETRIC MATRIX STORAGE AND SOLUTION WILL BE USED
  
                   M E M O R Y   E S T I M A T E
  
 PROCESS      FLOATING PT       MINIMUM MEMORY        MEMORY TO
              OPERATIONS           REQUIRED          MINIMIZE I/O
             PER ITERATION           (MB)               (MB)
  
     1          2.33E+11              168               2212
  
 NOTE:
      (1) SINCE ABAQUS DOES NOT PRE-ALLOCATE MEMORY AND ONLY ALLOCATES MEMORY AS NEEDED DURING THE ANALYSIS,
          THE MEMORY REQUIREMENT PRINTED HERE CAN ONLY BE VIEWED AS A GENERAL GUIDELINE BASED ON THE BEST
          KNOWLEDGE AVAILABLE AT THE BEGINNING OF A STEP BEFORE THE SOLUTION PROCESS HAS BEGUN.
      (2) THE ESTIMATE IS NORMALLY UPDATED AT THE BEGINNING OF EVERY STEP. IT IS THE MAXIMUM VALUE OF THE
          ESTIMATE FROM THE CURRENT STEP TO THE LAST STEP OF THE ANALYSIS, WITH UNSYMMETRIC SOLUTION TAKEN
          INTO ACCOUNT IF APPLICABLE. 
      (3) SINCE THE ESTIMATE IS BASED ON THE ACTIVE DEGREES OF FREEDOM IN THE FIRST ITERATION OF THE 
          CURRENT STEP, THE MEMORY ESTIMATE MIGHT BE SIGNIFICANTLY DIFFERENT THAN ACTUAL USAGE FOR 
          PROBLEMS WITH SUBSTANTIAL CHANGES IN ACTIVE DEGREES OF FREEDOM BETWEEN STEPS (OR EVEN WITHIN
          THE SAME STEP). EXAMPLES ARE: PROBLEMS WITH SIGNIFICANT CONTACT CHANGES, PROBLEMS WITH MODEL
          CHANGE, PROBLEMS WITH BOTH STATIC STEP AND STEADY STATE DYNAMIC PROCEDURES WHERE ACOUSTIC 
          ELEMENTS WILL ONLY BE ACTIVATED IN THE STEADY STATE DYNAMIC STEPS.
      (4) FOR MULTI-PROCESS EXECUTION, THE ESTIMATED VALUE OF FLOATING POINT OPERATIONS FOR EACH PROCESS
          IS BASED ON AN INITIAL SCHEDULING OF OPERATIONS AND MIGHT NOT REFLECT THE ACTUAL FLOATING 
          POINT OPERATIONS COMPLETED ON EACH PROCESS. OPERATIONS ARE DYNAMICALLY BALANCED DURING EXECUTION, 
          SO THE ACTUAL BALANCE OF OPERATIONS BETWEEN PROCESSES IS EXPECTED TO BE BETTER THAN THE ESTIMATE
          PRINTED HERE.
      (5) THE UPPER LIMIT OF MEMORY THAT CAN BE ALLOCATED BY ABAQUS WILL IN GENERAL DEPEND ON THE VALUE OF
          THE "MEMORY" PARAMETER AND THE AMOUNT OF PHYSICAL MEMORY AVAILABLE ON THE MACHINE. PLEASE SEE
          THE "ABAQUS ANALYSIS USER'S MANUAL" FOR MORE DETAILS. THE ACTUAL USAGE OF MEMORY AND OF DISK
          SPACE FOR SCRATCH DATA WILL DEPEND ON THIS UPPER LIMIT AS WELL AS THE MEMORY REQUIRED TO MINIMIZE
          I/O. IF THE MEMORY UPPER LIMIT IS GREATER THAN THE MEMORY REQUIRED TO MINIMIZE I/O, THEN THE ACTUAL
          MEMORY USAGE WILL BE CLOSE TO THE ESTIMATED "MEMORY TO MINIMIZE I/O" VALUE, AND THE SCRATCH DISK
          USAGE WILL BE CLOSE-TO-ZERO; OTHERWISE, THE ACTUAL MEMORY USED WILL BE CLOSE TO THE PREVIOUSLY
          MENTIONED MEMORY LIMIT, AND THE SCRATCH DISK USAGE WILL BE ROUGHLY PROPORTIONAL TO THE DIFFERENCE
          BETWEEN THE ESTIMATED "MEMORY TO MINIMIZE I/O" AND THE MEMORY UPPER LIMIT. HOWEVER ACCURATE
          ESTIMATE OF THE SCRATCH DISK SPACE IS NOT POSSIBLE.
      (6) USING "*RESTART, WRITE" CAN GENERATE A LARGE AMOUNT OF DATA WRITTEN IN THE WORK DIRECTORY.


          THE ANALYSIS HAS BEEN COMPLETED



                              ANALYSIS COMPLETE
                              WITH      5 WARNING MESSAGES ON THE DAT FILE



     JOB TIME SUMMARY
       USER TIME (SEC)      =     2.37E+03
       SYSTEM TIME (SEC)    =      32.    
       TOTAL CPU TIME (SEC) =     2.40E+03
       WALLCLOCK TIME (SEC) =         2498
